*** START OF AKTAHEADER ***
Başlık: Homer's Odyssey (Homeros'un Odysseia'sı)
Yazar: Denton J. Snider
Yayın Tarihi: August 11, 2008 [EBook #26275]
Dil: English
Link: https://www.gutenberg.org/ebooks/26275
Çeviri: Python-deep_translator-GoogleTranslator
Kategori: edebiyat
*** END OF AKTAHEADER ***
The Project Gutenberg EBook of Homer's Odyssey, by Denton J. Snider

This eBook is for the use of anyone anywhere at no cost and with
almost no restrictions whatsoever.  You may copy it, give it away or
re-use it under the terms of the Project Gutenberg License included
with this eBook or online at www.gutenberg.org


Title: Homer's Odyssey
       A Commentary

Author: Denton J. Snider

Release Date: August 11, 2008 [EBook #26275]

Language: English

Character set encoding: ASCII

*** START OF THIS PROJECT GUTENBERG EBOOK HOMER'S ODYSSEY ***

*** START OF TURKISH PART ***
Steven Giacomelli ve https://www.pgdp.net adresindeki Çevrimiçi Dağıtılmış Düzeltme Ekibi tarafından üretilmiştir (Bu dosya, Case Western Reserve Üniversitesi Koruma Departmanı Dijital Kütüphanesi tarafından cömertçe sağlanan görsellerden üretilmiştir)

Homeros'un Odysseia'sı.

Bir Yorum

Yazar

Denton J. Snider

The Sigma Publishing Co.
10 Van Buren St., Chicago, Ill.
210 Pine St., St. Louis, Mo.

İÇİNDEKİLER.

SAYFA

GİRİŞ 5

I. İLK ON İKİ KİTAP.

TELEMACHIAD 21

ULYSSIAD 121
(1) OCYGIA 129
(2) PHAEACIA 156
(3) FABLELAND 231

II. İKİNCİ ON İKİ KİTAP.

İTHAKEİAD 396
KİTAPLAR 13-16 (HAZIRLIK) 407
KİTAPLAR 17-24 (İNfaz) 461
(1) YANLIŞ (17-21) 468
(2) CEZA (22) 495
(3) UZLAŞMA (23-4) 500

ÖZET 511

_HOMER'İN ODİSE'Sİ._

_ÖNCEKİ KİTAP--GİRİŞ._

Odysseia kendini organize ederek başlar; kendi yapısını
Genel Giriş olarak adlandırılabilecek bir şeyde belirler. Burada, onunla İlyada arasında önemli bir fark vardır; İlyada'da sadece İlham Perisine Çağrı vardır ve sonra aksiyonun tam ortasına atlar. İlyada, buna göre, kendi organizasyonunu formüle etmez; bu da birliğine yönelik sık saldırıların bir nedeni olmuştur. Yine de, mimari ilke İlyada'da güçlüdür, ancak Odysseia'dakinden daha içgüdüsel ve çok daha az açıktır. Bu nedenle, şairin daha sonraki şiirinde sanatının daha derin bir bilincine ulaştığını varsaymak mantıklıdır; yapıcı ilkesinin bilgisine ulaşmıştır ve başlangıçta bunu açığa çıkarma zahmetine girmiştir. Elbette, bazı eleştirmenler tam da bu yapısal gerçeği Homeros'a ait olmadığı için eleştirmişlerdir; bizim yargımıza göre iyi bir gerekçeleri yoktur.

Buna göre, Birinci Kitap, tüm şiire ait olan ve orijinal metnin 95 satırını kapsayan bir Giriş ile açılır.
Bu bölümü, tüm eylemin üzerine bir dizi ışık tuttuğu ve daha önce söylendiği gibi, şiirsel organizmayı ima ettiği için, ayrı ayrı ayrıntılı olarak inceleyeceğiz. Üç bölümü vardır, Çağrı, Kahramanın geri dönüşüne ilişkin Engellerin Beyanı ve Tanrılar Meclisi, ki bunlar şiiri Olimpos'tan organize eden kişiler olarak temsil edilir. İlahi böylece şiirin üzerinde ilkinden itibaren gezinir, ancak büyük ve küçük birçok tanrının özel müdahalesiyle tamamlanan büyük, her şeyi kapsayan bir ilahi eylemle başlar. _Çağrı._ İlk satır, Ulysses adlı adamdan bahseder ve onun ana özelliğini, bazı dilbilgisi uzmanlarının başka şekilde yorumlamasına rağmen, _çok yönlü_ veya _becerikli_ olarak tercüme edilebilecek bir kelimeyle belirtir. Böylece, "çok gezen" ve bu nedenle yeteneğini kullanmak için birçok fırsatı olan Kahramanın başlıca entelektüel özelliğinin başlangıcından bahsedilir. İkinci satırda dikkatimiz şiirin gerçek başlangıç ​​noktasına, Truva'nın alınmasına çekilir,
ki bu Odysseia'nın eyleminin arka planıdır ve Yunan dünyasının büyük açılış olayıdır, burada ortaya çıkar. Çünkü bu olay, Helen halkını kaderlerinin bilincine
uyandıran güçlü sarsıntıydı; bunda yaklaşan büyüklüklerinin tüm tohumlarını gösterirler.
Genellikle böyle bir sarsıntı, bir ulusu tam enerjisine uyandırmak ve onu gelecekteki kariyerine göndermek için gereklidir.

Ulysses'in burada Truva'nın alıcısı olarak belirtildiğini ve bu görüşün Odysseia boyunca ima edildiğini unutmayın. Not: Aşil son Yunan kahramanıdır; şehri ele geçiremeden öldü ve tek başına onun elinde Yunan davası kaybedilecekti. Düşman şehir alınıp Helen restore edilmeden önce entelektüel kahraman öne çıkmak zorundaydı. Burada Odysseia İlyada ile çelişmez, ancak açıkça ondan daha ileri bir adımdır.

Ancak Truva yıkılmıştır ve şimdi Yunanlıların ikinci büyük sorusu ortaya çıkar: Nasıl geri döneceğiz! Döngünün yalnızca yarısı düşman şehrin fethiyle tamamlanır; ikinci yarısı restorasyondur. Çünkü savaşla ortaya çıkan Helen yaşamından bu kopuş yalnızca fiziksel değil, ruhsal hale gelmiştir. Bu nedenle tema, zekası sayesinde Truva'yı alabilen ancak şimdi başka ve daha büyük bir sorunu olan bilge adamla ilgilidir: Truva seferinin neden olduğu büyük yabancılaşmadan geri dönüş. Manevi restorasyon, bu _Odyssey_'nin temel noktasıdır, tıpkı tüm büyük Edebiyat Kitapları'nın temel noktası olduğu gibi.

Burada başlangıçta, tüm şiirin doğasını ima eden iki şeyin bir araya geldiğini görüyoruz: "Birçok insanın şehirlerini gördü ve onların
zihnini biliyordu." Ulysses'in gördüğü insanların sadece dışsal yerleşim yerleri değil, aynı zamanda onların içsel özleri, bilinçleri de. Bu son yetenek aslında bilgenin vizyonudur; insanların dışsal duyusal
görünümlerinden karakterlerine, ruhlarına bakar. Şiir
birçok olayı, gezintiyi, fırtınayı, felaketi anlatacaktır; ancak bunlarda şiirsel bakış büyük bir manevi deneyimi görmektir. _Odyssey_'nin okuyucusu, bir dereceye kadar kendisi de bir Ulysses olmalı ve sadece "birçok insanın şehirlerini görmek" değil, aynı zamanda "onların zihnini bilmek" zorundadır.
O zaman o da bu kitabı okurken kahramanca davranır.

Ancak Kahramanın edinmesi gereken tek şey bilgi değildir, bu çok olsa bile; bilginin karşılığı da onun olmalıdır, yani acı. "Yüreğinde denizde çok şey çekti;" ne yazık ki! Bu da büyük deneyime aittir. Bilge adam unvanına ek olarak, ona ayrıca çok dayanıklı adam da denecektir. Üzüntü onun kaderi ve büyük sıkıntıdır; kudretli deniz öfkeyle kabaracak ve her şeyi yutacaktır,
daha kudretli olan hariç, yani kahramanca kalbi hariç. Bilgi ve acı--evrensel karakterin iki kutbu değil midir? Her neyse, eski şair bunları kahramanının karşılığı olarak eşleştirmiştir; bilme susuzluğu, ikincisini öteye ulaşmaya iter ve sonra görünmeyen güçlerin intikamcı darbesi iner.

Dahası, burada daha da yüksek olan üçüncü bir özellik daha vardır, o da
bahsedilmiştir: sadece kendini değil, aynı zamanda yoldaşlarını da kurtarmaya çalışmıştır. O bilgeliği kullanıldı ve o acıya katlanıldı, yalnızca kendi iyiliği için değil, başkalarının iyiliği için. Arkadaşları için düşünmeli ve acı çekmelidir; burada bir vekalet duygusu, henüz çiçek açmamış ama kesinlikle eski Hellas'ta tomurcuklanan bir kendini sunma ipucu vardır. Eğer gerçekten evrensel bir insansa, yani Kahraman ise, kendisi için yaptığını başkaları için de yapmalıdır. Çünkü evrensel insan tüm insanlar değil midir - hem kendisi hem de başkaları özünde? Bu yüzden Ulysses arkadaşlarını kurtarmaya çalışır,
kendisini kurtarmaya çalıştığı kadar.

Ama bunu yapmadı, yapamazdı; burada onun sınırlaması vardır
ve aslında onlarınki de tüm Yunan dünyasının sınırlamasıdır.
Bu arkadaşlar ne yaptı? "Kendi aptallıkları yüzünden yok oldular;"
bilge adamlarının öğüdüne uymadılar;
Kahramanlarını reddettiler, bu yüzden de onları kurtaramadı. Kurtuluşları için Ulysses'inkinden daha büyük bir bilgelik ve daha derin bir acı gerekecektir,
ki bunun zamanı henüz gelmemiştir. Onları eve getirmek isterdi, ama "güneşin öküzlerinden yediler"; bir şekilde ışığın niteliğini yok ettiler ve yok oldular. Gerçek kesinlikle imasında çok uzaklara uzanıyor; en büyük şairinin en bilinçsiz şekilde burada halkının ve döneminin trajik sınırlamasını ima ettiği o eski putperest dünyasına derin bir bakış atıyor. Bu, yirmi beş asırdan fazla bir süre geriye baktığımızda, tam anlamını görebileceğimiz bir ipucudur, çünkü bu anlam çağlar boyunca kendini açığa çıkarmıştır. Zaman ayrıca Homeros'un yorumcusudur ve onun, olaylar olarak adlandırılan alfabesiyle, eski şairin gerçek yorumunu yazmıştır. Yine de Zaman'ın alfabesinin harfleri de öğrenilmelidir ve yalnızca görme değil, aynı zamanda içgörü de gerektirir.

Dua, tüm vurgusunu Ulysses'e ve yoldaşlarını kurtarma girişimine yapar. Telemakhos ve gençlik deneyiminden, taliplerle olan büyük çatışmadan hiç bahsetmez. Bu nedenle çeşitli şekillerde onda kusur bulunmuştur. Ancak Kahramanı seçer ve onunla ilgili en önemli üç konuyu belirtir: bilgisi,
acısı, yoldaşlarına olan bağlılığı. Yeter; bir
başlangıç ​​verdi, elimize bir ışık konuldu ki bu ışık şiirin üzerine önemli ölçüde
ışın saçıyor ve Kahramanın
karakterinin labirentlerini aydınlatıyor.

Bu Çağrı'daki vurgulu kelimeyi tekrar vurgulayın; bu Dönüş'tür
(_nostos_), tüm Odysseia Dönüş'tür, en kısa ve en basit olandan en uzun ve en derin olana kadar birçok
derecede ortaya konmuştur. Dönüş fikri şiire en başından itibaren hakimdir;
bu fikre Ulysses ve arkadaşlarının tüm deneyimi dökülür. Dönüş'ün arasında dolaştığı iki nokta da verilmiştir: Truva'nın ve Yunan dünyasının ele geçirilmesi. Bu, sadece bir seyahat veya macera kitabı değildir; dış Dönüş'e karşılık gelen bir iç restorasyon içerir ve eserin yorumcusu, işlevine sadık kalırsa, hareketinin iç çizgisini izleyecek, aynı zamanda var olma hakkı olan dış tarafı ihmal etmeyecektir.

_Engeller._ Bunlardan ikisi belirtilir ve efsanevi kaynaklarına geri götürülür. Geri dönen tüm kahramanlar, Calypso'nun mağarasında tuttuğu ve "kocası olmasını istediği" başlıca kahraman Ulysses hariç, Truva'dan evlerine dönerler; evli olmayan o, evli olanı, her ikisine de geri dönmeyi özlese de, ailesinden ve ülkesinden uzak tutar. O, ilkel bir efsanenin eski, devasa bir şekli olan "kötü niyetli Atlas"ın kızıdır, "tüm denizin derinliklerini bilen" - Yunan denizcisi için gemi kazası veya volkanik Yunan adaları için deprem gibi birçok ölüme yol açan görünmeyen bir bölgenin karanlık bilgisi; bu nedenle Yunan mitolojik fantezisi tarafından "kötü niyetli" olarak hayal edilir, bu da onu "Cennet ve Dünya'yı birbirinden ayıran uzun sütunların" destekçisi yapar - kesinlikle zor bir görev, herhangi birinin Olimpos'ta eğlenmekten başka yapacak bir şeyi olmayan mutlu Tanrılara karşı protesto ve muhalefet halinde olmasına neden olacak kadar. Bazen uzun sütunları bir süre tutmayı reddeder, sonra aşağıdakilerin göğe doğru başladığı deprem gelir. Bu Atlas'ın, Calypso'su onun çocuğudur ve muhtemelen adası, "denizin göbeği", onun suların altındaki hareketlerinden birinin ürünüdür.

Burada Odysseia'nın mitolojik işlenişinde tuhaf bir damara dokunuyoruz.
Kapsamlı ama karanlık imalarıyla masal, şiirin liflerine
işlenmiştir. Bu uzak Atlas, Ulysses'i daha sonra anlatılacak olan haz adasında gerçekten de saklayan "saklayıcı" Calypso'nun babasıdır. Fakat "gizlenmesine" rağmen, Ulysses'in Tanrıların yardımını çağıran bir özlemi vardır. İnsan doğasının duyusal kısmında bir yerlerde yattığını görebileceğimiz ilk engel budur.

İkinci engel, hemen fiziksel deniz olarak düşündüğümüz Neptün'dür - kesinlikle büyük bir bariyer. Neptün'ün gazabı ayrıca, Polifemus'un, yani Cyclops'un kökenini veren bir mucize hikayesiyle başlar - denizin çok sayıda garip ve devasa canlı şekli üretmesi. Fakat Neptün artık çok uzakta, tabiri caizse Yunan dünyasının dışında, Etiyopyalılar arasında. Bu, Tanrılarda sonlu bir unsur olduğunu ima eder; onlar burada, orada ve başka yerlerdedir; yine de sonsuz bir özelliğe de sahiptirler; bir yerden her yere kolayca geçerler ve Ulysses Neptün'den kaçamaz.

Öyleyse, ikisi de denizin efsanevi varlıklarıyla çok eskilere dayanan iki engel vardır; burada, bir deniz şiiri olan Odysseia'nın deniz karakterini, bir kara şiiri olan İlyada'nın aksine fark edebiliriz. Bu şarkıların her birinin birincil ortamının bulunduğu fiziksel ortam, kendi temalarıyla derin bir uyum içindedir - biri daha nesneldir, eylemi söyler, diğeri daha özneldir, ruhu söyler.

Ve mevcut iki engelde bile, birinin, Neptün'ün, daha dışsal göründüğünü fark edebiliriz - fiziksel denizin; diğerinin, Kalipso'nun ise daha içsel göründüğünü - duyuların cazibesinde tutulan ruhun.

_Tanrılar Meclisi._ Ulysses'in geri dönmesinin önündeki iki engel
şimdi Tanrılar tarafından bir araya gelen konseyde ele alınacaktır. Bu,
gerçekten, birinci derecede önemli bir konudur; ilahi düzenin dışında hiçbir büyük eylem, hiçbir büyük şiir mümkün değildir. Bu düzen şimdi bir sese sahip olarak ortaya çıkar; dünyanın en yüce otoritesi, eserle ilgili kararını
vermektir. Şair başlangıçta evrenin yönetici ilkesini Olimposlu tanrıların
kişilerinde önümüze çağırır. Öte yandan, ıssız bir adada, ev ve ülke özlemiyle, planıyla yalnız birey Ulysses'e dikkat edin - gerçekleşecek mi? İki taraf bir şekilde bir araya gelmelidir;
bireyin planı Tanrıların planına uymalıdır; ancak
insan ve ilahi olanın işbirliğiyle eylem, özellikle de
büyük eylem mümkündür. Buna göre şimdi şiirin kapsamını çok önceden göreceğiz, insanın amacının ve umudunun Tanrıların yönetimiyle uyumlu olup olmadığını gösterecek. Zeus en yüce tanrıdır ve ilk önce şöyle der: "Ölümlüler Tanrıları ne kadar da kötü suçluyor!" Gerçekten de Eden'deki ilk düşüş gibi yabancılaşmış, uyumsuz bir zamandır. Ama neden bu suçlama? "Çünkü kötülüklerin bizden, Tanrılardan geldiğini söylüyorlar; oysa onlar kendi çılgınlıkları yüzünden takdir edilenin ötesinde üzüntüler çekiyorlar." En yüce Tanrı'nın ilk sözleri şiirin ve insan hayatının en yüce sorunuyla ilgilidir. Tanrıların insan hastalıklarının nedeni olduğunu iddia etmek yanlış bir teolojidir, en azından yanlış bir Homeros teolojisidir; bunlar insanın kendi eylemlerinin sonuçlarıdır. Dahası, neden bireyin dışındaki kör, kişiliksiz bir güç değildir, Kader değil, insanın kendisidir. Ne yüce bir ifade! Yüce mahkemeden bireysel özgür irade ve ilahi yönetimle ilgili nihai kararı duyuyoruz.

Zeus'un ağzından çıkan bu ifadenin ve ilk vurgulu beyanının önemi yok değil. Orada şairin şiirine ve Tanrıların müdahalesine nasıl bakmamızı istediğini okuyabiliriz.
Ayrıca, dünyanın işleyişinde ilahiliğin yeri ile ilgili Homeros'un görüşünün ne olduğunu da çıkarabiliriz.

Zeus'un emri böyle olduğundan, yorumcunun yapması gereken tek şey itaat etmektir. Artık bu Odysseia'daki Tanrıların insan özgürlüğünü yok ettiğini değil, bununla derinden tutarlı olduklarını söyleyeceğiz; gerçekleştiğinde ilahi müdahale, insanın tamamen ötesindeki dışsal bir etken değil, bir şekilde kendi doğası, gerçek anlamda kendi iradesinin özüdür. Gerçekten de görülmesi gereken şey budur; şiir bir özgürlük şiiridir ve yine de bir takdir şiiridir; çünkü en baştan itibaren insanın özgür iradesini ve dolayısıyla sorumluluğunu ilan eden ilahi takdiri duymuyor muyuz? O halde Tanrı, yok etmek değil, eylemde insan özgürlüğünü güvence altına almak ve uygun durumlarda bunu iddia etmek zorundadır. Böylece Zeus, Homeros'un dininin ve şiirinin temel ilkesi olan yasayı kendisi koymuştur.

Öyleyse Tanrıların bu dünyada yapacak hiçbir şeyleri yok mu? Elbette var ve bu, en yüksek otoritemiz Zeus'u duyacağımız bir sonraki noktadır. Aklında Tanrıların kötü eylemi yapmaması konusunda uyardığı AEgisthus'un durumu var; yine de uyarıya rağmen bunu yaptı ve ardından ceza geldi. Böylece Tanrılar, kötü eylemde bulunan kişiyi uyararak, parlak ışık saçan habercileri Hermes'i gönderip, onun aracılığıyla büyük adalet yasasını ilan ettiler: eylem, eylemde bulunan kişiye geri dönecek. Zeus artık dünyayı yöneten yasayı dile getirdi; bu gerçekten de onun yasası, her türlü kaprisin üstünde. Dahası, Tanrı günahkara bir uyarıda bulunuyor; putperest dünyada bile gösterdiği ilahi bir merhamet.

Zeus'un aklında olan AEgisthus'un durumu, gerçekten de en yüce ve en başarılı suçluyu bile cezalandıran en yüce adaletin çarpıcı bir örneğidir. Yunan dünyasında derin bir etki bıraktı ve son şeklini AEschylus'un yüce trajedisinde aldı. _Odysseia_ boyunca kader hikayesi arka plandan belirir ve
Penelope'nin taliplerinin başına ne geleceğini güçlü bir şekilde ima eder, onlar Ulysses'e AEgisthus'un Agamemnon'a yaptığını yapmaya çalışıyorlar. Onlar
yok olacaklar, kararname böyledir; böylece şiirin başında sonu haber veren bir
imge görürüz. Bu, haksız eylemden dolayı intikamın geldiği AEgisthus'un imgesidir.

Öyleyse, Tanrılar gerçekten vardır; onlar yasadır ve yasanın sesidir, ayrıca insan isterse onları dinleyebilir; ancak isterse itaatsizlik edebilir ve sonuçlarını kendisi getirebilir. Yasa dünyadaki
ilk gerçek olarak vardır ve Tanrılar ile birlikte uygulayıcılar olarak kendi kendine işleyecektir. Bu, insanlara ilahi takdirin yollarını göstermeyi öneren bir şiir için muhteşem bir başlangıç ​​noktası değil midir? Şimdi önümüzde Homeros'un dünya düzeni fikri var, bunu şu şekilde özetleyebiliriz:
Tanrılar insanda, onun aklında ve vicdanındadır, modernlerin dediği gibi; ancak aynı zamanda insanın dışında, kendilerinin yönetici olduğu dünyadadırlar. İlahi ve beşeri iki taraf bir olmalıdır; cennet ve dünya arasındaki büyük ikilik, kahramanın eyleminde ve okuyucunun düşüncesinde aşılmalıdır. Tanrı göründüğünde, insanı kendisinden çıkarıp gerçek varlığının yattığı evrensel aleme yükseltmektir. Tekrar belirtelim ki, tanrılar dışsal bir kader, özgürlüğü yok eden bir güç değil, özgürlüğü yerine getiren bir güçtür, çünkü onlar sıradan bireyin dar sınırlarını
yıkıp onu ilahi düzenle birlik ve uyum içinde yüceltir. Orada gerçekten özgürdür.

Böylece Zeus'un ilk konuşmasında dünyayı yöneten iki büyük yasayı ve bu şiiri -özgürlük ve adalet- ilan ettiğini duyuyoruz. İkincisi, aslında, birincisinden kaynaklanır; eğer insan özgürse, sorumlu tutulmalı ve kötü eylemin cezasını çekmelidir. Dahası, bu _Odysseia_ için eleştirinin temel yasasıdır; özgürlüğü ve adaleti onda görmeliyiz
ve bunları ilahi düzene uygun olarak ortaya koymalıyız; Zeus'un kararnamesine itaat etmeyen ve şiirinde sadece eğlenceli bir masal veya belki de bir güneş efsanesi gören eleştirmene yazıklar olsun.

Ama burada Pallas Athena yüce tanrıya konuşuyor ve bir istisna gibi görünen bir şeye dikkat çekiyor. Bu, her zaman
"ölümsüz Tanrılara kurbanlar sunan", görevini yapmış ve
ailesine ve ülkesine dönmek isteyen Ulysses'in durumudur. Pallas zorluğa işaret ediyor;
Büyüleyici Kalipso, onu evli karısından alıkoymak ve İthaka'yı unutturmak ister; ama İthaka başaramaz.
Çok güçlü bir
arzuya sahiptir, güzel perinin transını kırmak için can atar ve Tanrılar, kendisine yardım etmeye hazır olduğunda ona yardım etmelidir. Aksi takdirde, aslında,
Tanrı değillerdi. Sonra ikinci engel vardır, Neptün; o,
"tek bir", "herkese karşı" direnemez, çünkü Her şey şimdi gezginin
yeniden canlandırılmasını emretmektedir. Gerçekten de, burada Zeus tarafından dile getirilen, Ulysses'in geri dönmesini emreden bütünün sesidir;
dünyanın aklı da diyebiliriz, eğer bu küçük beynin büyük düşünceyi kavramasına yardımcı olacaksa.

Ama diğer tarafı unutmamalıyız. Bu ilahi güç sadece dışsal değildir; Zeus'un kudretli eli Ulysses'i Kalipso'nun adasından alıp İthaka'ya koymayacaktır. Kendi
kendisi aracılığıyla geri dönmeli, ancak ilahi düzene uymalıdır. Her iki taraf da Zeus tarafından
ele alınır; Ulysses "zekada ölümlülerden üstündür" ve şimdi
her şeye ihtiyaç duyacaktır; ancak aynı zamanda "Tanrılara fazlasıyla kurbanlar sunar", yani Tanrıların iradesini bulmaya ve
kendini buna göre ayarlamaya çalışır. Hem zekaya hem de dindarlığa sahiptir, sıklıkla
çatışma içindedir, ancak sonunda uyum içindedir. Bu keskin anlayışla
ilahi amaç konusunda tekrar tekrar şüpheye düşecektir; ancak
şüpheden yeni bir uyum içinde yükselir.

En Yüce'nin fermanı verildiğinde, Pallas hemen Ulysses'in dönüşünü ve bununla birlikte şiiri düzenler. Bu üç büyük bölüme ayrılır:--

I. Pallas, henüz erkekliğe adım atan Telemakhos'u ikinci bir Ulysses olması için uyandırmak üzere İthaka'ya gider. Suçlu taliplere ilahi uyarıyı yapacaktır; sonra oğlu için büyük bir örnek olan babasını sormak için Pylos ve Sparta'ya gidecektir. Böylece, öğrenimi örnek yoluyla ve yaşlı ve deneyimli bir adamın dudaklarından çıkan bilgeliğin canlı sözüyle gelen Homeros gençleri için bir eğitim kitabımız olur. Bu bölüm, Telemakhos olarak adlandırılabilecek ilk dört Kitabı kapsar.

II. Merkür, hemen salını yapan ve eve doğru yolculuğuna başlayan Ulysses'i serbest bırakmak için Kalipso'ya gönderilir. Bu ikinci bölümde, Kahramanın Truva'dan ayrıldığı andan itibaren 13. Kitapta İthaka'ya varana kadar olan tüm hikayesini öğreneceğiz. Genç Telemakhos'un eğitim dönemini (_Lehrjahre_) yaşaması gibi, erkek Ulysses'in de hayat yolculuğunun deneyimini (_Wanderjahre_) yaşaması gerekir. Her iki bölüm de birbirine aittir ve eski Yunan dünyasında olabileceği gibi, insanın eğitimi üzerine tam bir çalışma oluşturur. Bu bölüm Odysseia'nın kendisidir veya Ulyssiad'dır.

III. Üçüncü bölüm baba ve oğlu İthaka'da bir araya getirir; sonra onları büyük adalet eylemini, taliplerin cezalandırılmasını gerçekleştirmek için bir araya gelirken tasvir eder. Bu bölüm son on iki Kitabı kapsar,
ancak burada verilen Pallas planında açıkça belirtilmemiştir.

Şiirin yapısı böyledir ve ana hatları Olimpos'tan düzenlenmiştir. Bunu bu şekilde düzenleyen bilgelik tanrısı Pallas'tır; eleştirmenlere tercih ederek onu takip edeceğiz ve yorumu aynı organik çizgiler üzerinde ortaya koyacağız. Her okuyucu, şiirsel gövdenin üç büyük ekleminin, aslında şiirin yapıcı ilkesi olan Tanrıça tarafından önceden haber verildiğini hissedecektir. Kişi, eski şarkıcının, eserinin ilahi bir kökene sahip olduğuna, aslında Zeus'un kararına uygun olarak Pallas tarafından Olimpos'ta
planlandığına dair bu inancını görmekten hoşlanır. En azından İlham Perileri ona bunu söylemiştir ve oradaydılar. Ancak buradaki en görkemli ifade, Yunan İlahi Takdiri olan Zeus'un, insanın özgür iradesini ilan etmesidir.

Odysseia'nın sorunu çok eski ve hala çok yenidir; biraz dikkatle, Homerosçu Yunanlının, her birimizin hala çözmesi gereken şeyi, yani yaşam sorununu kendi tarzında çözmek zorunda olduğunu görebiliriz.
Daha dün, büyük bir şehrin popüler vaizinin, Homeros'un bir tür halefi olan birinin, şu metni teması olarak kullandığını duyabilirdik: Tanrı suçlu değildir. Böylece büyük şiirin ebedi bir konusu vardır,
ancak dış görünüşü zamanla çok değişmiştir. Homeros'un ruhu
etiktir ve onu ölümsüz kılan da budur. Bu gerçeği fark edene kadar, onu gerçek anlamda anladığımız söylenemez.

TELEMACHIAD.

Giriş sona erdiğinde, Telemakhos'un hikayesi başlar ve
Beşinci Kitaba kadar devam eder. Anlatıda iki ana nokta öne çıkar. Birincisi, taliplerle, suçluluk adamlarıyla, ilahi düzeni bozanlarla olan büyük çatışmadır; bu çatışma şiirin sonuna kadar devam eder, orada
uyumsuzluğa sürükledikleri dünyadan
sürüklenirler. Telemakhiyad'ın ikinci noktası,
bu Kitapların asıl gerçeği olan
Telemakhos'un eğitimidir; genç, önünde uzaktan beliren çatışmayla karşılaşmak üzere eğitilmelidir. Böylece, ırkın ilk
eğitim kitaplarından birine, muhtemelen ilkine sahibiz; hala
bu çağın eğitimcileri için birçok değerli ipucu içeriyor. Yöntemi, insan ruhunun gerçek bir disiplininde yerini hiçbir şekilde kaybetmemiş olan sözlü gelenektir. Yaşayan bilgelik, bugün ders kitaplarının ölü bilgisine göre
bir avantaja sahiptir.

Telemakhos'un bu dört Kitapta gittiği okul çok hoştur. Kahramanlar onun eğitmenleridir, hem eylemin hem de sözün adamlarıdır ve tüm eğitimin alındığı kaynak, çağın en büyük olayı olan Truva Savaşı'dır. Genç adam, bu olayın ne olduğunu, hangi fedakarlıkları gerektirdiğini, halkı arasında hangi karakterleri geliştirdiğini öğrenecektir. Truva'da belagat ve bilgeliğiyle ünlü Nestor'u görecek ve onunla sohbet edecektir. Sonra, Truva deneyiminden daha geniş bir deneyime sahip olan Menelaus'a gidecektir, çünkü ikincisi Mısır'da olmuştur. Genç Telemakhos ayrıca, büyük mücadelenin merkezi figürü olan Helen'i, güzel Helen'i görecektir. Son olarak, babası hakkında çok şey öğrenecek ve böylece İthaka'daki taliplerle yaklaşan çatışmaya hazır olacaktır. _Özellikle İlk Kitap._ Odysseia'nın tamamı Olimpos'ta düzenlendikten sonra, hemen yeryüzüne inmeye ve orada kendini gerçekleştirmeye başlar. Çünkü büyük şiir İlahi Fikirden kaynaklanır ve kökenini kendi açılımında göstermelidir. Bu nedenle Tanrılar Odysseia'nın başlangıç ​​noktasıdır ve onların iradesi dünyevi eylemden önce gelir; ayrıca, onların tek bir kararı şiiri baştan sona kapsar, tıpkı göklerin insanın durduğu her yerde eğilmesi gibi. Yine de bu şiirsel yolculuk sırasında Tanrılardan birçok özel müdahale ve hatırlatma olacaktır.

Olimpos planına uygun olarak Pallas, kanatlı sandaletlerini giyip kudretli mızrağını aldıktan sonra İthaka'ya uçar; böylece kendini Yunan plastik duygusuna göre insanlaştırır ve sonlu bir biçim alır, Taphianların Kralı Mentes'in şeklini alır. Yok olan Ulysses'in evinde kötülük, şiddet ve düzensizlikle dolu bir dünya bulur; Tanrıların yüce Olimpos'tan inip, şeylerin gidişatına barış ve doğruluk getirmesinin gerçekten de zamanı geldi. İlahi görüntü şimdi dünyevi işlere damgalansın ve çekişmeden uyum çıksın. Yine de, işin insanın kendi faaliyetiyle yapılması gerektiği unutulmamalıdır.

Gözlerimizin önünde bir dizi net çizilmiş
klasik resimde ortaya çıkan çatışma, bir yanda Ulysses'in Evi ile diğer yanda Penelope'nin
Talipleri arasında yer alır. Ailenin başı ve Devletin yöneticisi olan Ulysses, yirmi yıldır ortalarda yoktur;
tanrısız adamlar oğlunun gençliğinden yararlanmış ve onun malını
serbestçe tüketmektedirler; ayrıca, kendisine yardım etmek için sadece
kurnazlığı olan karısını da kandırmaktadırlar. Oğul ve karısı şimdi acı kaderleriyle mücadelelerinde önümüze getirileceklerdir. Böylece, mevcut Kitabın yapısındaki iki ana bölümü not ediyoruz: Ulysses'in Evi ve Talipler.

I.

Tanrıça Pallas çoktan İthaka'ya indi ve talipler arasında duruyor. Komşu bir kabilenin Kralı olan Mentes'in şeklini aldı; yeryüzünde göründüğünde her zamanki gibi kılık değiştirmiş.
Onu kim tanıyacak? Talipler değil; onlar kendi durumlarında hiçbir Tanrı göremezler, en azından Bilgelik Tanrıçası'nı. "Telemachus onu ilk gözlemleyen kişiydi;" neden sadece o? Gerçek şu ki onu görmeye hazırdı ve sadece onu görmeye değil, söyleyeceklerini duymaya da hazırdı. "Çünkü taliplerin arasında yüreği kederli bir şekilde oturdu, babasını zihninin gözünde gördü," tıpkı Hamlet'in hayaleti görmesinden hemen önce olduğu gibi. Şair her iki tarafı da hazırlamak için çok dikkatlidir - ilahi tezahür ve onu görecek olan ölümlü.

Dahası, genç adam babasının "talipleri dağıttığını ve kendisinin onur kazandığını ve kendi evini yönettiğini" gördü. Tanrıça'nın yeni bir yaptırımla anlatacağı şey tam da budur ve şiirin seyri boyunca olacak olan da tam olarak budur. Gerçekten Telemakhos içsel olarak hazırdır; içinden çıkacak olan her şey zaten içindedir. Tüm röportaj boyunca iki ana gerçek vardır: 
ebeveyn örneği ve nihai intikam, her ikisi de 
dışarıdaki Tanrıça ve içerideki adam tarafından teşvik edilir.

Yine de bir fark vardır. Telemakhos umutsuzdur; neredeyse diyebiliriz ki, dünyanın herhangi bir ilahi düzenine inanmamaya başlıyor. "Tanrılar, kaderini 
tüm insanlarınkinden daha fazla bilinmez kıldıkları" Ulysses'in Evi'ne karşı "kötü şeyler planlıyorlar." Sonra bana mirasımı
tüketen bu talipleri gönderdiler. Zavallı çocuk zor zamanlar geçirdi; sefaletinde ilahi takdiri sorgulamaya başladı ve Tanrıların iyiliğini
itibarsızlaştırdı.

İşte, şimdi, Pallas'ın özel işlevi. Kalbine cesaret
aşılıyor. Babasının dönüşü için güçlü bir umut veriyor, "İthaka'dan uzun süre
uzaklaşmayacak"; ayrıca Tanrıların amacını da ima ediyor, ki bu amaç gerçekleşmek üzere. Artık çocuk olma;
Babanın örneğini takip et; git ve onu öğren ve onun yaptıklarını taklit et. Tanrıça bununla şüphe eden gence hemen harekete geçme planı sunar - zihinsel felcini
atmak için en iyi şey. Hemen Pylos'a ve Sparta'ya "babasını öğrenmek" için gidecek ve taliplerin yok edilmesine yönelik nihai bakış açısına sahip olacak. Genç çabalayan için gerçek bir Tanrıçadır, umut ve bilgelik kelimesini söyler ve sonra onu kendine geri döndürür.

Burada yine şunu söylemeliyiz ki Tanrıça Telemakhos'un kalbindeydi
ruhunu dile getiriyordu, ama aynı zamanda onun dışındaydı. Sesi zamanın, gerçekliğin sesidir; her şey Telemakhos'un eline akışkandır ve onun planına göre şekillenmeye hazırdır. Yine de Tanrıça onun içindedir, düşüncesi, bilgeliğidir ve artık dünyanın aklıyla bir olmuştur. Her iki taraf da Şair tarafından en vurgulu şekilde bir araya getirilir; bu onun prosedüründeki en yüce gerçektir. Öznel ve nesnel unsurlar birdir; ilahi düzen insanın düşüncesine mührünü basar, onunla birleşir, planını kendi planı yapar. Böylece Tanrı ve Birey uyum içindedir ve büyük tamamlanma mümkün olur. Fakat Telemakhos'un düşüncesi sadece kendi
planı olsaydı, ilahilik damgasını almamış olsaydı, o zaman asla dünyada kendi başına var olan ve ebedi olan eylem, kahramanca eylem olamazdı. Tanrıça, "bir kuş gibi" hızla ve sessizlikle uçup gider. Telemakhos artık yabancının bir ilahilik olduğunu anlar. Çünkü kendi
yüreğinde kanıtı yok mu? O gerçekten de yeni bir kişidir veya onun başlangıcıdır. Fakat bu şarkıyı dinleyin! "Yunanlıların hüzünlü dönüşü"nü söyleyen ozandır bu--şairin kendisinin şu anda bu Odysseia'da söylediği şarkının ta kendisi. Çünkü bu aynı zamanda hüzünlü bir dönüş, hatta birçok hüzünlü dönüş, bunu daha sonra göreceğiz. Homeros böylece kendini şiirine koymuştur
şiirini söyleyerek. Bu dokunuşun hayattan alındığını,
bir prens salonunda kendi deneyiminin yankısı olduğunu kim hissetmez ki?

Ama işte geliyor, hikayenin görkemli hanımı, Penelope, Ulysses'in karısı, sanki müziğe yanıt olarak. Mutlu bir anda görkemli bir görünüm; ancak mutlu değil: "Yüzünün önünde bir peçe tutarak
ve gözyaşları dökerek, ozan'a şöyle dedi: Phemius bu hüzünlü
şarkıyı bırak, kalbimi parçalıyor." Bu ona kocasını ve henüz gerçekleşmemiş olan hüzünlü dönüşünü hatırlatıyor; acıya dayanamıyor
ve ozan'dan dinleyicilerini memnun edebilecek başka bir şarkı söylemesini rica ediyor.

Bu, karakteri birçok şekilde sınanacak ve şiirin sonuna kadar birçok ince dönüşten geçecek olan bilge Penelope'dir. Bu ilk görünümünde, taliplerinin huzurunda kocasına olan ölümsüz aşkını ilan ettiğini görüyoruz. Bu özelliğin doğasının en derin özelliği olduğunu söyleyebiliriz. Onu sürekli düşünüyor
ve yokluğunda ağlıyor. Yine de, zaman zaman tüm kadınca nezaketini, evet, hatta ikiyüzlülüğünü gerektiren bir sorunu var. Pervasız talipler
elini çekmek için baskı yapıyor, nefret dolu evliliği ertelemek için tüm sanatlarını kullanmak zorunda; aksi takdirde çaresiz. Kocasının, yirmi yıldır geri dönmesini bekleyen dişi bir Ulysses'in karşılığı. Ayrıca fırtınalı zamanlar geçirdi, hayatın tüm deneyimini yaşadı; dünyasındaki maceraları onun dünyasındakiyle yarışıyor. Ama
tüm kurnazlığının altında sonsuz sadakatin kayası var. Odasına geri döndü ve kocası için "Pallas tatlı bir uykuyla göz kapaklarını kapatana kadar" ağladı.

Telemakhos'un bu noktada annesine verdiği cevabı da atlayamayız. Şiir üzerine küçük bir Homeros incelemesi denebilir. "Anne, şair ruhu onu hareket ettirdikçe şarkı söylesin;" kısıtlanmamalı, ancak şu büyük gerçeği vermelidir; "suçlu şairler değil, Zeus'tur" Yunanlıların hüzünlü dönüşü için; "insanlar en yeni olan
şarkıyı alkışlarlar," yenilik zaten Homeros'un zamanının edebiyatında aranıyordu. Ancak oğlunun annesine sert bir şekilde sitem etmesi, konuşmasının sonunda annesine kendi işlerine,
dokuma tezgahına, iğdeye ve hizmetçilere bakmasını söylemesi muhtemelen bir eklemedir.
Bu, Homeros'un en büyük antik yorumcusu Aristarchus'un yargısıdır; aynı zamanda Odysseia'nın en büyük
modern yorumcusu Profesör Nitzsch'in yargısıdır.

II.

Çarpışmanın diğer tarafı, Ulysses'in Evi'ne mülkte, oğulda, eşte ve son olarak Ulysses'in kendisinde saldıran talipler grubudur. Onlar, yaptıkları geri dönen kahraman tarafından intikamı alınacak olan suçlulardır; cezaları, şiirin tam da temelinin dayandığı dünyanın etik düzenine olan inancı örnekleyecektir. Küstah, sefahat düşkünü, adaletsizdirler; yerleşik hakka meydan okurlar. Zeus, aynı tür karakterlerin bir örneği olan AEgisthus'tan bahsederken onları düşünür ve onun kaderi, Olimposlu kanun koyucuya göre onların kaderidir. Onlar da kendi
aptallıkları yüzünden yıkıma gidecekler, ancak birçok uyarıdan sonra. Az önce Telemakhos etkileyici bir uyarıda bulundu: "Ebediyen yaşayan Tanrıları çağıracağım, böylece Zeus sizin yaptıklarınıza karşılık verecek işler bahşetsin." 

Küstahlıkları devam ediyor; adalet ve kurumların etik dünyası, var olmaya devam ederse, bu tür adamlardan temizlenmelidir. 
Eski ozanın en yüksek düzene olan bu bağlılığını kim sevmez? Talipler gerçekten kördür; Tanrıça'nın varlığını fark etmemişlerdir, ancak o gittikten sonra hafif bir şüphe vardır; taliplerden biri o yabancının kim olduğunu sorar. Telemakhos, soruşturmayı yatıştırmak için, ilahi ziyaretçinin dışsal varsayılan biçimini, "atalardan kalma bir misafir, Taphos'lu Mentes"i verir; ancak şair şunu eklemeye dikkat eder: "Ama o (Telemachus) zihninde ölümsüz Tanrıça'yı biliyordu."

Taliplerle olan çatışma, tüm şiirin çerçevesini oluşturur. Telemakhos'un eğitimi ve Ulysses'in disiplini, bu pratik amaca ulaşır - ülkenin arınması ve etik düzenin yeniden kurulması olan
kötü davrananların yok edilmesi. Tüm eğitim, kahramanca eylemi ortaya çıkarmak içindir. Sonraki Kitap çatışmayı daha ayrıntılı olarak ortaya koyacaktır.

_Ek._ Okuyucu, Birinci Kitabın önceki anlatımında, üç birliğin ortaya konduğu,
tüm Odysseia'nın, Telemakhiyad'ın ve Kitabın kendisinin birliğinin ortaya konduğunu fark etmiş olacaktır. Bunların hepsinin şairin elinde, en büyüğünden en küçüğüne doğru, uygun sırayla yavaş yavaş ortaya çıktığını görüyoruz. Şimdi okuyucuya, bu birliklerin her birinin şiddetle saldırıya uğradığı ve tamamen bir hayalet olduğu ilan edildiği bildirilmelidir. Saldırı başlıca Almanya'da gerçekleşmiştir. Yukarıda şiirin organizmasındaki eklemler olarak ele aldığımız şeyler kesilmiş, birbirinden ayrılmış ve farklı yazarların yazdığı birçok ayrı şiir veya pasajı
oluşturmak için ilan edilmiştir. Böylece tek büyük Homeros birçok küçük Homeros'ta kaybolur ve bunun Homeros'u takdir etmenin tek gerçek yolu olduğu iddia edilir.

Bu teşrihçilerin en ünlüsü muhtemelen Alman Profesör Kirchhoff'tur, bazı görüşlerinden bu ekte alıntı yapacağız. Psikolojik eğilimi analiz, ayrılık, bölünmedir; birlik fikri ona bir korku, yıkması veya ölmesi gereken güçlü bir yanılsama gibi gelir. Özellikle öfkesi Birinci Kitaba yöneliktir, muhtemelen yukarıda belirtilen üç birliği içerdiği için, bunların hepsine saldırır ve kendi görüşüne göre parçalara ayırır. Tüm Giriş'i (1-88. satırlar) mevcut yerinden koparır ve Beşinci Kitabın önüne koyar, burada Kalypso hikayesinin önsözü olarak işlev görür. Telemachiad'ın geri kalanı başka bir şairin eseridir. Gerçekten de Birinci Kitabın geri kalanı (Giriş'ten sonra) İkinci Kitabı üreten aynı adam tarafından yazılmamıştır. O zaman İkinci Kitap
kesinlikle Birinci Kitaptan daha eskidir ve bir şekilde ondan önce yerleştirilmelidir. Ancak gerçek şu ki, Birinci Kitap sadece İkinci Kitaptan, oradan cümle ve fikir parçaları alıp bunları bir araya getiren
aşağılık bir şair tarafından yapılmış bir
karmaşadır.
Kirchhoff, Çağrı'da Güneş'in öküzlerine yapılan göndermeyi (6-9. satırlar) teorisiyle tutarsız olduğu için keser.

Kirchhoff, Giriş'i bu şekilde elden çıkardıktan sonra, Birinci Kitabın kalan kısmını ele alır ve neredeyse satır satır parçalara ayırır. Farklı pasajlar üzerine yaklaşık kırk ayrı notta, şüphecilik için noktalar işaretler, esas olarak tek bir prosedüre sahiptir: İlyada ve Odysseia'yı inceler ve burada gözlemlediği bir dize veya ifade ve hatta başka yerde kullanılan bir kelime bulursa, hemen bunun oradan alınıp buraya yabancı bir el tarafından konulmuş olması gerektiği sonucuna varmaya meyillidir. Homeros'un her okuyucusu, gerektiğinde dizeleri ve hatta tüm pasajları tekrarlama alışkanlığına aşinadır. Kirchhoff, bu tür tekrarların hepsini farklı yazarlığın işaretleri olarak ele alır; şair birini, bir redaktör veya taklitçi diğerini kullanmış olmalıdır. Emin olmak için, hangisinin orijinal ve hangisinin türetilmiş olduğunu söyleyebileceğimiz bir kriterimiz olmalıdır; ancak Kirchhoff'un sağlamayı başaramadığı böyle bir kriter için, onun yargısını
emperyal ve nihai olarak kabul etmeliyiz. Gerçekten de bir veya iki kez, prosedürünün kusurlu olduğunu hissediyor ve bunu desteklemeye çalışıyor, ancak kural olarak şöyle diyor: "Aşağıdaki beyit bir formüldür (tekrar) ve
_bu nedenle_ yazarın malı değildir." (_Die Homerische Odyssee_, s.
174.)

Şimdi bu tür tekrarlar tüm eski şiirlerde, baladlarda, halk şarkılarında, _Kalevala_'da ve Homeros şiirlerinde yaygındır.
Gönderilen mesajlar iletilirken doğal olarak tekrarlanır; aynı olay, örneğin tekne kürek çekerken, ziyafet hazırlanırken veya zırh giyilirken aynı dilde anlatılır. Bu genellikle epik sadeliğin, dilin saf kullanımının bir işareti olarak hissedilir ve bu da sadece çeşitlilik uğruna bir ifadeyi değiştirmez. Ancak Kirchhoff
ve takipçileri tam tersini yapacaktır; erken dönem şairi asla
değişmez veya tekrar etmez, bunu yalnızca sonraki şair yapar. Bu yüzden Odysseia'nın geri kalanında ve İlyada'da da, özellikle kelimeler konusunda bu Birinci Kitap'ın pasajlarıyla ortak bir yanı olan çok sayıda pasaj arar ve bunların kolayca bir "cento", ödünç alınmış ifadelerin karışık bir kütlesi olduğunu bulur.

Peki bu eserin yazarı kimdi? Orijinal Homeros değil, daha sonraki bir
eşleştirici ve yamacı, taklitçi veya redaktör. Kirchhoff'tan, önümüzde duran Odysseia'nın yapımında kaç kişinin parmağı olduğunu söylemek kolay değildir. Tezlerinde rengarenk bir kalabalıktan bahsederiz: orijinal şair, devam ettirici, araya ekleyen, redaktör, yeniden kurucu, taklitçi, eski kısmın yazarı, yeni kısmın yazarı - sadece bireyler değil, görünüşe göre insan sınıfları. Böylece eski Homeros'u intikamla anatomize eder.

_İKİNCİ KİTAP._

Birinci ve İkinci Kitap arasındaki genel ilişki hemen kavranmalıdır. Birinci Kitapta ana gerçek, Üst Dünya'daki Meclis ile birlikte Pallas aracılığıyla Telemakhos'a gelen ilahi etkinin inişidir, ona cesaret verir ve onu harekete geçmeye teşvik eder. Bu eylem, uyumsuz topraklara uyum getirmektir. İkinci Kitapta ana gerçek, Alt Dünya'daki Meclis ile birlikte Telemakhos'un Pallas biçiminde ilahi etkiyle yeni bir katılıma yükselişidir, Pallas onu eğitim yolculuğuna gönderir. Bu nedenle, iki Kitapta yukarıdan aşağıya, sonra aşağıdan ilahi etkiye doğru bir süpürme görürüz. Dünya ve Olimpos döngünün iki yarısıdır, ancak Dünya uyumsuzluk içindedir ve Olimpos'un uyumuna dönüştürülmelidir.

Şimdi İkinci Kitaba tek başına baktığımızda, bunun iki bölüme ayrıldığını görüyoruz: Telemakhos tarafından bir araya çağrılan Halk Meclisi ve Pallas'ın, çağrısı üzerine tekrar ona görünen Pallas ile birleşmesi. İlki dünyevi bir konudur ve Aşağı Dünya'nın ilahi düzenle çatışmasını gösterir - bir tarafta Talipler, diğer tarafta Ulysses'in Evi. İkinci bölüm genç kahramanı ilahi bir vizyona yükseltir ve okuyucuyu da onunla birlikte yükseltmelidir. Daha önce Pallas, sanki Telemakhos'a inmişti, ancak şimdi kendiliğinden Tanrıça'ya yükseliyor. Açıkça yeni bir güce, Tanrılarla birleşme gücüne sahip. Bu iki önde gelen düşünce Kitabı iki iyi işaretlenmiş bölüme ayırır - birincisi 1-259. satırları, ikincisi geri kalanını içerir.

I.

İthakalılar Meclisi, şehir toplantılarında bir araya gelme ve ortak çıkarlar hakkında danışma gibi siyasi bir alışkanlığı varsayar. Bu kullanım
Ari ırkında yaygındır ve bundan parlamentolar,
kongreler ve diğer akraba kurumlar, Halk önünde hitabetle birlikte
kaynaklanır. Bu küçük
tohumun harika bir gelişimi olmuştur, burada İthaka'da hala canlı olduğunu görüyoruz, ancak şeylerin mutsuz durumu tarafından neredeyse boğulmuş durumda. Ulysses'in
gitmesinden bu yana böyle bir Meclis olmadı, diyor ilk konuşmacı, yaşlı bir adam, hafızasına dayanarak, yirmi yıl değil; kesinlikle boğulmuş kurumsal yaşamın bir işareti. Telemakhos'un yeni kariyerinde yaptığı ilk şey Meclisi çağırmak ve bu kurumsal yaşamı
yeniden faaliyete geçirmektir. Bunun, yaşlı konuşmacının sözlerindeki taze nabzı hissediyoruz, ona "Kutsanmış" diyor.

Şimdi hitabet başlıyor, çünkü böyle bir yerde başlaması gerekiyor. Altın
belagat armağanı Homeros ve Homeros Halkı tarafından çok değerlidir;
bu kehanetseldir, insan her zaman büyük Attika hatiplerini düşünür.
Konuşmacılar konuşmalarıyla belirgin bir şekilde karakter olarak belirgindir; ancak
Meclis'in kendisi sessiz kalmış gibi görünüyor; açıkça iki
taraflıya bölünmüştü; biri Ulysses'in Evi'ne, diğeri ise
Taliplere. Zamanın yozlaşması açıkça Halkın ruhuna
işlemiştir ve Tanrılar tarafından yapılan temizlik kapsamlı olmalıdır. İki tür konuşmacının da aynı doğrultuda her iki tarafı desteklediğini fark ediyoruz; böylece İthaka'nın
uyumsuzluğu artık onun konuşmasında yansıtılacak. Her iki tarafta üç grup konuşmacı konuşuyor ve davanın farklı aşamalarını önümüze koyuyor; bunları düşünce ve okuyucunun gözü için işaretleyeceğiz.

1. Yaşlı adam AEgyptius'un kısa açılış konuşmasından sonra, tüm hareketin kalbi Telemakhos'ta kendini ifade ediyor; Telemakhos, tüm konuşma boyunca baş konuşmacı olarak kalıyor. Konuşması güçlü ve cesur; konuşmasından iki ana nokta ortaya çıkıyor. Birincisi, Penelope'yi talihlendirmek için doğru yolu seçmeyecek olan Taliplerin yanlışı,
geleneğe göre babasına gidip gelin hediyesini vererek, ancak
anneye olan
talibi bahanesiyle oğlunun malını tüketecekler. İkinci nokta, İthakalılara yönelik güçlü bir çağrıdır - onların doğruluk duygusuna, utanç duygusuna ve "ilahi gazaplarıyla kötü işleri yapanlara geri döndürecek" olan Tanrılardan korkmalarına. Ama boşuna; o İthaka Meclisi, Taliplerin arkadaşlarını ve akrabalarını ve muhtemelen satın alınmış taraftarları içerir; hayır, Taliplerin bazılarını içerir ve burada cevap olarak bir konuşma yapmak üzere onlardan biri ayağa kalkar.

Bu, şiirde bulunan Taliplerin davasının en ayrıntılı savunmasını yapan Antinous'tur. Konuşma, tüm suçu Penelope'ye atması bakımından dikkat çekicidir - bir sevgilide cesur bir
davranış değil; yine de kadının
düzenleri ve kurnazlığı nedeniyle büyük bir hayranlığı ele verir. Üç yıl ve daha fazla bir süredir, gündüzleri ördüğü ve geceleri çözdüğü
harika ağıyla istenmeyen taliplerin
tüm çetesini engelledi ve kandırdı. Ve hatta
şimdi bile
ortaya çıktığında, onları uzak tutuyor ama onları iyi bir ruh halinde tutuyor, ancak açıkça ailenin malına büyük bir zarar vererek,
bu gerçek Telemakhos'u protestosuna yöneltti. Antinous, kendisinin ve diğerlerinin kadın tarafından
alt edildiğini hissetmesine rağmen, bu nedenle övgüsünü esirgemiyor, hatta daha da artırıyor.

Ancak onun ültimatomunu da duyuyoruz: "Anneni gönder ve babasının emrettiği ve ona hoş gelen kişiyle evlenmesini emret." Bu yüzden ebeveynin iradesi ve kızın seçimi Homeros'un günlerinde bile birlikte gitmek zorundaydı. Elbette Antinous'un bu emri vermek için hiçbir haklı gerekçesi yok; evin efendisi değil, ama
olmayı umuyor; onun varsayılan otoritesi saf küstahlıktır. Öyleyse neden
Talipler, anne tarafından kandırıldıkları için oğluna zarar versinler? Yine de "annesi şu anki aklını koruduğu sürece onun geçimini ve servetini" tüketmeye devam edecekler.

Ancak konuşmasındaki en ilginç şey, Penelope'nin tavrını ve güdülerini keşfetmektir. Onun sadakatini görüyoruz, ancak sadakatten daha fazlasına, yani en büyük beceriye,
gizliliğe veya daha nazik bir kelime kullanmak gerekirse, kadınca bir nezakete ihtiyaç var. Ellerinde zor bir sorun var; oğlunu, kendisini ve mülkün mümkün olduğunca çoğunu, her şeye gücü yeten bir haydut grubundan kurtarmak zorunda. Onları kovmaya kalkışsa, evi yağmalayacaklar, oğlunu öldürecekler ve kesinlikle onu kaçıracaklardır. Güçleri var, eğilimleri var; bir kadının zayıf ellerinde küçük bir iplikle tutuluyorlar, ama o iplikle hepsini,
son adama kadar yakalıyor. Buna belli bir tür aşk denebilir;
Antinous'un ona nasıl hayran olduğunu görüyoruz, ama onun kendisini ve arkadaşlarını
aptal ettiğinin farkında. Her biri ödülü kazanmayı umuyor ve o onları
umutla besliyor, "her adama özel mesajlar göndererek"; böylece her birini
birbirine karşı çeviriyor ve şiddete
yönelik ortak eylemleri engelliyor. O harika kadın armağanı onun, her bir
yüz Talibinin sadece kendisinin kayırıldığını düşünmesini sağlama armağanı, ancak doğru zaman gelene kadar gizli tutulsun!

Ama Penelope bu armağanı bir silah olarak kullanıyor, bu onun Ulysses Evi'ni kurtarma aracı, diğer birçok güzel kadın ise bunu eğlence için kullanıyor. Haklı mı? Amacı araçlarını haklı çıkarıyor mu? Aile ve Devlet'te en üst düzeyde olduğu doğru, ikisini de kurtarıyor; ama o
gizliyor, talipleri kandırıyor. Ülkedeki bir çocuk, bir kadın, bir yaşlı adam Ulysses Evi'nin şu anki gücünü oluşturuyor;
ama kurnazlık şiddetle karşılaşıyor ve onu her zamanki gibi mahvediyor.

Ve yine de karakterinin diğer tarafına bir şeyler verebiliriz. O
armağanını kullanmaktan zevk alıyor, kim almaz ki? Talipler
burada olduğu ve göz ardı edilemeyeceği için, onların
talibi sayesinde belli bir tatmin elde edecektir. Biraz cilve, biraz hayranlık, kocasına olan sarsılmaz sadakatinin arasından seçebileceğimiz yirmi yıllık bir aradan sonra hatırlayabiliriz. Tüm bu saygı
ona zorla dayatıldığı için, bundan bir tür
tatmin kazanmaya çalışır; yüz erkeğin hayranlığını
suratını ekşitmeden almaya çalışır. Dahası, onları
örgüde sıkıca tutan,
ama onları uzak tutan; onlara her zaman umut veren, ama onu sonsuza kadar
uzatan o kadınsı inceliğin egzersizinden zevk alır. Gerçekten de ördüğü o ağ, Talipler için Kader ağıdır.
Şu anda tekrar karşılaşacağımız Penelope için bu kadar.

Antinos'un annesini uzaklaştırması talebine, Telemakhos asil, evet, kahramanca bir yanıt verir. Her yerde yanlış, anneye yanlış, babasına yanlış, eğer o (Telemachus) çeyizi geri vermezse, Tanrılara yanlış; Erinyelerden intikam ve
insandan düşmanlık böyle bir eylem için ona gelirdi. Böylece genç kahraman ilahi düzene başvurur ve kendisini onun emirleriyle uyumlu hale getirir. Cesaretle, Talipler kötülüklerine devam ederlerse, "Ben
sonsuza dek yaşayan Tanrıları çağıracağım; eğer Zeus suçlarınız için uygun bir
ceza verirse, bu sarayda intikam alınmadan öleceksiniz." der. Gerçekten de, yerine getirilmesini sağlayan bir güçle verilen bir konuşma; dünyada herhangi bir Tanrı varsa, kehanet niteliğinde olmalıdır. Telemakhos'un
tanrılıkla iletişim kuran ve yukarıdan kararname çıkaran bu yüce ruh haline
sahip olduğunu zaten gördük. İşte, ölümlü tarafından söz söylenir söylenmez,
ilahi cevabı alırız. Bir alamet biçimindedir,
iki kartalın kasabanın evlerinin arasından sağa doğru uçarken birbirlerini parçalamasıdır. Ayrıca, işaretin anlamını söyleyen ve Telemakhos'un sözlerini Tanrıların mührüyle damgalayan yorumcu da oradadır.

2. Burada, çatışmanın kurumsal aşamasını gösteren önceki setin aksine, dini aşamayı daha belirgin bir şekilde gösteren ikinci konuşma setine geçiyoruz; yani,
Tanrılar birinin teması, Aile ve Devlet ise diğerinin temasıdır.
Yaşlı kahin Halitherses, din adamı, alameti Telemakhos'un söyledikleriyle tam bir uyum içinde açıklar; Ulysses'in hızla geri döneceğini ve Taliplerin, vazgeçmezlerse cezalandırılacağını kehanet eder. Yaşlı kahin, oğlunun ruhunu gördükten sonra böyle bir sonucu önceden haber verebilir; İntikam gerçekten de havadadır ve hassas kahin ve ayrıca hassas okuyucu tarafından hissedilir.

Peki Taliplerin böyle bir görüşe karşı tutumu nedir? Eurymachus
şu anda onların konuşmacısının adıdır, açıkça onların türünün temsilcisi bir adamdır. Peygamberle alay eder: "Eve git, ihtiyar ve çocukların için tahminde bulun!" O bir alaycı ve şüphecidir; gerçek anlamda Tanrılara karşı Taliplerin sözcüsüdür, onlara yaşayan bir inançları olamaz; uzun süren kötülükleri sayesinde hiçbir
cezanın olmadığını hayal ederler, kendi yalanlarına inanmaya başlarlar. Dinsizlik, o zaman, bu konuşmanın başlıca gerçeğidir ve bu konuşma aslında dünya hükümetini ve bu şiirin tüm dersini inkar eder. Böylece ilahi uyarı hor görülür, davranış değişikliği çağrısı dikkate alınmaz.

3. Sonra, ana notalarında kişisel olan ve yok olan Ulysses'e ait olan üçüncü konuşma setimiz var. Ulysses'in nezaketi ve asil karakteri, eski yoldaşı Mentor tarafından, evine yapılan haksızlığa izin verdikleri için İthakalılara yönelik güçlü
suçlamalarla ortaya konur. İsteselerdi bunu önleyebilecekleri ima edilir; ancak şeflerine olan minnettarlık ve sevgilerine yönelik bu çağrıya açıkça sağırdırlar.

Üçüncü Talip Leiocrates, küstahlığın ve hakka meydan okumanın doruk noktası olan bir konuşmayla karşılık verir. Talipler, Ulysses şimdi ortaya çıkıp onları sarayından
kovmayı üstlenirse, onu bizzat öldürürler. Gelip kendininkini talep etmeye cesaret edemiyor! Doğru ya da yanlış, kalacağız ve gerekirse sahibini öldüreceğiz. Bu, Taliplerin ruhunun en açık ve eksiksiz ifadesidir, onlar bir sürü hayduttur, dünyada herhangi bir düzen varsa, süpürülmeleri gerekir. Leiocrates Meclisi dağıtır, ki bunu yapmaya hakkı olmadığı açıktır; insanlar uysalca itaat eder, kurumsal ruh şiddet adamına karşı koyacak kadar güçlü değildir. Dağılmalarına izin verin; onlar her halükarda
çürümüş bir koyun sürüsüdür.

Kitabın ilk bölümü burada sona erer. Üç grup konuşmacı, her iki tarafta da görüşlerini bildirmiştir; her grup sorunun belirli bir aşamasını temsil etmiştir; böylece kurumsal, dini ve kişisel aşamaları duymuş olduk. Bu şekilde Taliplerin davranışlarının kapsamı tamamen ortaya çıkar; Devleti ve Aileyi yok ediyorlar, Tanrılara meydan okuyorlar ve yollarına çıkan
bireyi öldürmeye hazırlar. Elbette hasatları, bu şiirin derin temeline dayandığı ilahi adaletin
orakları için olgunlaştı.

Halk Meclisi artık tamamen gözden kayboldu,
gerçekten de varolmasının geçerli bir temeli yok. Genç adamlar baş konuşmacılar gibi görünüyor ve şiddetli muhalefet gösteriyorlar, yaşlı adamlar ise geri çekiliyor veya
Ulysses Hanesi'ne karşı açık sempati gösteriyorlar. İthaka'nın gençleri
parlak ödül karşısında başlarını döndürdüler ve cezayı unutarak
ileri atıldılar. Gerçekten de bu şiirin kaynağını, ilerlemesini ve tedavisini verdiği ahlaki gevşemenin zamanıdır.
Ancak Telemakhos, genç adamların kitlesinden yükseliyor, Tanrıların yasasını
iddia edecek olan geleceğin kahramanı. Bu şekilde, Odysseia'nın ruhunun en derin anlamda etik olduğu ve insanlara dünyanın ilahi düzenini gösterdiği gerçeğine inmemiz gerekir.

II.

Şimdi, Telemakhos'un insan kurumlarının başaramadığını tanrının yardımıyla başardığını gösteren kitabın ikinci bölümüne geçiyoruz. Meclis ona büyük davada yardım etmezse, Tanrılar yardım edecek ve şimdi onlara başvuruyor.

İthakalılar, babası hakkında bir şeyler öğrenebilmesi için bir gemiyi reddetmişlerdi; yani, şu anda ilk amaç olan eğitimine izin vermeyeceklerdi.

Deniz kıyısına iner, orada yalnız kalır, Tanrıça ile ve kendisiyle iletişim kurar ve orada Pallas'a dua eder, ellerini gri dalgalarda yıkar - ki bunun sembolik bir arınma eylemi olduğunu düşünebiliriz. Pallas'ın Mentor'un insan şeklini alıp gelip onunla konuşması şaşırtıcı mı? Eğer öyleyse, o hazır olmalı; o hazır ve o görünmeli. İlk sözleri, Meclis'le önceki sahne boyunca yaptığı davranışların yankısıdır: "Telemakhos
bundan sonra ne yiğitlikte ne de bilgelikte eksik kalmayacaksın." Onu babasının şöhreti ve yaptıklarıyla uyandırır, çünkü o zaten uyarılmıştır. Yine de çok gerekli bir parçasıdır; Telemakhos'la konuşan ve ona yardım eden dünyadaki ilahi unsurdur; onun düşüncesinin sadece öznel olmadığını, artık onunkiyle, nesnel bilgelikle bir olduğunu ve gerçeği yöneteceğini gösterir. Gerçek
görünün alanına yükselir ve oradan amacını düzenler. Şairin Pallas'ı yolculuğun araçlarını düzenleyen kişi olarak tasvir ettiği doğrudur, tıpkı ilk başta tüm şiirin çalışmasını düzenlediği gibi. Ancak bu, gerçeği gören ve dünyayı kontrol eden o bakışta yer alan Telemakhos tarafından da yapılır.

Önceki ifade sıklıkla tekrarlanacaktır; Homeros'taki her ilahi görünüm, herhangi bir öneme sahip olan, okuyucu tarafından her zaman yeniden düşünülmesi gereken tek bir gerçeğin tekrarından başka bir şey değildir. Telemakhos'un söylediği şey artık onun salt arzusu veya fikri değildir, gerçekliktir, onun dışındaki geçerli şeydir, bu nedenle Tanrıça tarafından seslendirilir ve gerçekleşmelidir. Bu nedenle şair okuyucusunu kendisiyle birlikte ilahi enerji alanına, düşünmenin ve istemenin bir olduğu ve insanın içgörüsünün yalnızca Tanrı'nın sözü olduğu yere yükselmeye zorlar.

Kitabın geri kalan koşulları, Tanrıça'nın önceden emrettiği gibi, iki merkez etrafında toplanır: Telemakhos ve Pallas: "Sen eve git ve erzakları hazırla, ben de İthakalılar arasında bir gemi ve mürettebat tutacağım." 

1. Telemakhos, yokluğunun uyandırabileceği şüphelerden kaçınmak için Taliplerin arasına gider. Onlar onunla alay eder ve onu aşağılarlar, bunun için de üç örnek tekrar verilir. Telemakhos, ilahi görevinin bilincinde olarak yoluna devam eder, ancak onlara şunu söylemekten geri kalmaz: "Bu yolculuğu kesinlikle yapacağım, boşuna olmayacak." Yaşlı hostes Eurycleia'dan yiyecek ve şarap alır, Eurycleia onu caydırmaya çalışır. Sonra da annesi onun planından haberdar olmamalı, onu hala evde bir çocuk olarak tutacaktı, oysa o artık bir adam olmuştu. 

2. Telemakhos'a benzeyen Pallas, gemiyi ve mürettebatı güvence altına almak için kasabadan geçer. Sonra Taliplerin üzerine, onların eğlencesinden sonra yumuşak bir uyku döker; bilgeliklerini alır, ama bu onların kendi eylemleridir, ki bu da şu anda ilahi bir öneme sahiptir. Sonunda hepsini gemiye getirir, dümeni ele geçirir ve lehindeki esintiyi gönderir. Ya da, şairi anladığımız gibi, zeka bu şeyleri birçok kılıkta ortaya çıkarır; hatta doğa, esinti, kendi amacı için bundan faydalanır.

Böylece Pallas, Kitabın bu ikinci bölümünde kontrol eden ele sahiptir,
insan ve doğanın üstündedir. Kontrol eden ruhun aynı zamanda Aklı tezahür ettiren, dünyayı kontrol eden ve yönlendiren Telemakhos olduğunu söyleyebiliriz. Mentor olarak, Telemakhos olarak aldığı çeşitli biçimlere dikkat edin; sonra yine tamamen zihin aracılığıyla, doğal şekilde çalışır, örneğin Telemakhos eve gidip yolculuk için yiyecek ve
şarabını aldığında. Şair böylece onun şekliyle oynar; yine de o,
esas olarak insanları ve koşulları ele geçiren ve onları evrensel düzene sokan ve şiirin büyük amacına katkıda bulunmalarını sağlayan ilahi zekadır. Yine de Tanrıça, insanın özgürlüğünü yok etmez, ancak onu tamamlar ve onu kaprisin alanından
çıkarır. Telemakhos, Pallas'ın iradesini isteyerek ister.

Tanrıça'nın doğaya hükmetmek için yaratıldığı daha önce belirtilmişti -- esinti, Taliplerin uykusu. Bu, masalın yöntemidir
böylece zekayı tasvir etmek, işlevi doğayı kontrol altına almak ve onu amacına hizmet ettirmektir. Esinti esiyor ve gemiyi
yürütüyor; Telemakhos'u Pylos'a, özellikle de şu anki durumda dünya düzeninin bir parçası olan
gemiye getirmek için ilahi bir araçtır.
Doğuştan şair hala bu şekilde konuşuyor, doğal olarak bir masalcı ve kendine
yardım edemiyor. Konuşmasında avcı geyiği kovalamaz, fakat
onu sihirli bir güçle tüfeğinin önüne getirir; mistik balıkçı balıkları çağırır; büyülü mermi kendi avını bulur ve sadece
vurulmaya ihtiyacı vardır; tabakçı hatta teknesindeki suya bir büyü yapar ve
büyüyle bükülmüş bir tüpten yukarı doğru akıtır. Fakat tüm bu büyünün arkasında
zeka çalışır ve şair doğa üzerindeki kontrolünü tasvir ettiğinde efsanevi, doğaüstü kıyafetini alır. Böylece genel olarak Mitos, öznel değil, nesnel zihni yansıtır; hayal gücünden kaynaklanır, yetiştirilmiş bir Yansımadan değil. Zamanımızda talep, bu nesnel biçimlerin öznel düşüncelere çevrilmesidir; o zaman onları daha iyi anlayabiliriz. Ancak Homerosçu insan tam tersi eğilimi gösterir: Kendi zihnini tam olarak kavrayabilmesi için içsel düşüncelerini Mitos'un dışsal biçimlerine çevirmek zorundaydı. Dünyaya ilişkin anlayışı efsaneviydi; bu biçimi anlıyordu, soyut yansımanınkini değil. Şöyle haykırabiliriz: Mutlu Homerosçu insan, kendisi değil, dünyanın her zaman mevcut olduğu kişi. Yine de her iki taraf da tam gelişmiş ruha aittir, efsanevi ve yansıtıcı; Homeros'tan tek taraflı modern zihin, kaybolma tehlikesi altında olan manevi mirasının bir kısmını geri kazanabilir. Bu nedenle, günümüz eğitiminin Mitosu insan ruhunun gelişimindeki gerçek yerine geri döndürmeye çalışması önemli bir gerçektir. Hayal gücünün hakkının olduğu kabul edilir ve doğru şekilde ele alınmadığı takdirde bir Öfkeye kapılır ve onu dışlanmış bir hale getiren çağdan üç kat daha fazla intikam alır. Homeros şüphesiz tüm mitoloji uzmanlarının en büyüğüdür, insan zihninin saf mitolojik özünü ele geçirir ve ona biçim ve güzellik verir. Bu nedenle, özellikle bu bakış açısından onu inceleyeceğiz. Mevcut Kitapta, Ithaca halkından Ulysses Evi'ne yapılan büyük haksızlığı düzeltmek için çok az şey veya hiçbir şey beklenmediği güçlü bir şekilde ortaya konur. Kısmen kendileri haksızlık yapanlardır, kısmen de haksızlık yapanlar tarafından sindirilerek hareketsizliğe zorlanırlar. Yolsuzluk halkın ruhunu kemirmiştir; Sonuç olarak, büyük kurtuluş görevi bir bireye geri yüklenir. Bir kişi herkesin yerini veya birkaç kişi çoğunluğun yerini alacaktır, çünkü iş yapılmalıdır. Büyük bir kriz zamanında bireyin kudreti böylece canlı bir gerçeklikle ortaya konur; Tanrılar'ın yanında olan bir kişi çoğunluktur. Eski şair, en gerçek içgüdüyle Tanrıça Pallas'ın İlahi'ye katılan ve onun kararını yerine getiren Telemakhos'u yönettiğini gösterir. İnsan ve tanrı arasındaki bu birlik sadece mitolojik bir
spor değil, en samimi inançtır; gerçekten de dünyanın yönetimindeki en sağlam gerçektir ve ozan tüm çağlar için onun sesidir.

Bu İkinci Kitap tüm şiir için önem taşır. Artık Ulysses'in geri döndüğünde büyük bir halk karşılaması beklemeyeceği açıktır; kendini yalnızca becerisi ve
cesaretiyle kendi halkına geri getirmelidir. Halk, ona kötülük yapanları öldürmesi için yardım etmeyecek;
tam tersi olacak. Birey yine kendisinin ve ailesinin ve ülkesinin kurtuluşunu sağlamalıdır.
Telemakhos, kahraman babanın değerli oğlu olduğunu göstermiştir;
mevcut Kitap onu Ulysses'in dönüşüyle ​​sıkı sıkıya bağlar ve
tüm Odysseia'yı birliğe bağlar; özellikle bu Kitap, baba ve oğlu büyük bir kurtuluş eyleminde bir araya getiren
son on iki Kitaba bakar ve hazırlık yapar.

Eğer önceki Kitapta Taliplerin ahlaksızlığını gördüysek, şimdi
Halkın aptallığına tanık oluyoruz. Yine de umut kıvılcımı bu İthaka gecesinde
parlak bir şekilde parlıyor; suçluları cezalandırmak ve ülkeyi kurtarmak için bir şeyler iş başında.

_ÜÇÜNCÜ KİTAP._

Anlatımsal olarak, mevcut Kitap doğrudan önceki Kitapla bağlantı kurar. Pallas hala Telemakhos'la birliktedir, Nestor'un evi olan Pylos'a varana kadar yolculuğa birlikte devam ederler. İthaka'dan
ayrılmışlardır ve başka bir diyara gelirler; bu yer değişikliği, Homeros'ta sıklıkla olduğu gibi, içsel bir koşul değişikliğini de beraberinde getirir; yolculuk sadece coğrafi değil, aynı zamanda ruhsaldır; genç adamın bundan bir deneyim elde etmesi için gerçekten de öyle olması gerekir.

İthaka ile Pylos arasındaki fark büyüktür ve çarpıcıdır. İkincisi, öncelikle dinin meskenidir, yeni gelenler, Pylians'ı, tüm halkın katıldığı bir ibadet eylemiyle meşgul bulurlar, "dokuz sıra koltuk ve her sırada beş yüz adam." Bazı yorumcular, çok büyük bir sayı diye bağırırlar, ancak böyle bir kalabalığın gerçek anlamına bakmamışlardır. Burada fedakarlık, saygı, Tanrılara inanç vardır; İthakalılar arasında ise ibadeti ihmal etme, dini felç ve Talipler tarafından düpedüz küfür vardır. Dahası, bir ülkede düzen hüküm sürerken, diğerinde anarşi vardır. İkinci ve Üçüncü Kitaplar arasındaki karşıtlık, İthaka ve Pylos arasındaki karşıtlık böyledir. Bu karşıtlığın şair tarafından
kasıtlandığını düşünebiliriz ve böylece onun
sanatsal prosedürüne bir göz atabiliriz.

Resmin merkezinde, buna göre Kitaba ruh veren çok yaşlı bir adam olan Nestor vardır. O, şimdiki yaşamında Tanrılar dünyasına o kadar yakındır ki, onlarla birlikte yaşıyor gibi görünür; yaş bu dingin dindarlığı getirir.

Nestor Kitabı'nın bir kurban ve dua festivaliyle başlayıp bitmesi tesadüf değildir; bu onun karakterinin gerçek ortamıdır. Ziyaretçilere söyledikleri temel özelliğinden renk ve anlam kazanacaktır; sözlerinde dünyadaki olaylarda ilahiliğin tam bir
tanıtımını bekleyebiliriz.

Ama zamanında güçlü bir savaşçıydı, Truva Savaşı'ndaydı,
o dönemde zaten yaşlı olmasına rağmen. Hayatının dersini,
o savaş sırasında değil, sonrasında verecektir. İlyada'nın kahramanlarından biriydi, Odysseia'nın tekrarlamadığı, hatta tekrarını önlemek için elinden geleni yaptığı bir şiirdi. Dahası, evine başarıyla dönenlerden biriydi, bunun nasıl yapıldığını söyleyebilir mi? Bu, Telemakhos için özel bir ilgi konusu olan sorudur, çünkü babası on yıl sonra
henüz evine dönmemiştir.

Kitabın teması burada önerilmiştir: Dönüş. Fiziksel olarak
bu, tüm Odysseia'nın ön varsayımı olan Truva Savaşı'ndan bir dönüş olmuştur; ölmemiş olan tüm kahramanlar bir şekilde
Hellas'a geri dönmek zorundadır. Bu yollar, kişilerin karakterine ve koşullara göre
çok çeşitlidir. Böylece
ikinci büyük Homeros konusuna ve aslında Dönüş'te (_Nostos_) gömülü olan Yunan bilincinin ikinci büyük gerçeğine değiniyoruz.
Bu konu hakkında kısa bir inceleme burada yapılmalıdır. Mevcut Kitapta Dönüş'ün birkaç aşaması var; Nestor, Menelaus, Ulysses hepsi
Dönenlerdir, düşünce için gerekli bir kelime kullanmak gerekirse; her adam sorunu
kendi tarzında çözer.

Peki bu sorun nedir? Görelim. Truva seferi, beraberinde giden her adamın
evinden ve ülkesinden uzun bir
ayrılığı içeriyordu; yine de bu ayrılık Helen uğruna yapılmalıydı,
o, karısı ve kraliçe,
alındığı
yuvasına ve ülkesine geri dönsün diye. Onun Dönüşü, aslında, tüm
Dönüşlerinin özüdür. Savaş sayesinde Aile ve Devletten koptuklarını, tüm kurumsal yaşamlarından
bir süreliğine vazgeçmek zorunda kaldıklarını görüyoruz. Bu uzun
ayrılık, ilk etapta sadece alışkanlıktan yabancılaşmaya, manevi bir kopuşa dönüşüyor; sonra, ikinci olarak, bir evi ve bir ülkeyi yok etmeye çalışıyorlar;
bu düşmanın olsa bile ve eylem, gerekli olsa bile, cezasını getiriyor. Bu, bir şiddet ruhu, insan hayatına saygısızlık, kurumsal düzenin
yıkımı doğuruyor. Truva'dan önceki Yunanlıların eğitimi böyledir. Ulysses ve arkadaşlarının Ciconianlar şehrine yönelik pervasız saldırısı (Dokuzuncu Kitap), bu uzun şiddet döneminde en iyi ve en bilge Yunanlılar arasında ortaya çıkan ruhun bir göstergesidir.

Yine de, büyük yabancılaşmaya rağmen, geri dönme ve ruhlarının derinliklerine saplanmış olan gediği iyileştirme özlemi
duymaktadırlar. Helen uğruna, ailenin bütünlüğü ve ayrıca medeni hayatları için en değerli bağların koparılmasına katlanmadılar mı? Helen için yaptığını, her Yunanlı savaş bittiğinde kendisi için yapmaya hazır olmalı; kopan ilişkilerin yeniden kurulmasını özlemelidir; Asya'da kalıp gerçek bir Yunanlı olmaya devam edemez. Çatışması böyledir; Aile ve Devleti korurken, Aile ve Devleti feda etmek zorunda kalmıştır. Sonra, fedakarlık eylemini gerçekleştirdiğinde, kendini feda ettiği şeye geri döndürmelidir. Zor bir görev, derinden çelişkili bir süreçtir, ancak sonu uyumdur; birçoğu son aşamaya ulaşamayacak, ancak bu arada yok olacaktır. Dönüş, yabancılaşmadan sonraki bu büyük restorasyon sürecidir.

Birçokları Geri Dönendir, birçok farklı şekilde başarılı ve başarısızdır. Ancak hepsi, bilge ve çok dayanıklı adam olan Ulysses'in uzun ve çaresiz Dönüşünde yeniden başlar. Hem uzayda hem de zamanda
Dönüş'ü en uzun olanıdır; ruhta ise her şeye rağmen en derin ve en şiddetli olanıdır. Bu nedenle, mevcut şiir, Dönüşler dizisinin (_Nostoi_) bir tür özeti ve devamıdır. Eski Yunan destansı çağlarında, konu birçok şiire yol açmıştır; ancak, bunlar temelde yalnızca bir tanedir ve biz hala buna sahibiz, diğerleri ise
kaybolmuştur. Ruh, kendiyle ilgilenir gerçekten.

Gerçek Geri Dönen, buna göre, bir zamanlar
ayrıldığı kurumlara geri döner; onları artık bilir, daha önce sadece
hissederdi. Kurumsal dünyası böylece bilinçli bir sahiplenme haline gelmelidir;
yabancılaşmayı atlatmış ve restore edilmiştir; restorasyonuna inkar yoluyla, modern terimi kullanarak şüphecilik yoluyla ulaşılmıştır. Truva savaşından önceki eski bilinçdışı dönem sonsuza dek gitmiştir; Yunan Adem'in kovulduğu Cennet oydu. Ancak restorasyondan sonraki yeni insan, olumsuz dönemi kendi içine almış ve sindirmiş olan tam bir öz-bilinçli varlığın
imgesidir. Şanslı kişi! Artık bir
şiirin konusu yapılamaz, çünkü hiçbir çatışması yoktur.

Ancak hayata başlayan genç adam, Telemakhos'un oğlu, aynı tür bilgiyi deneyimle değil, soruşturmayla elde edecektir.
Sözlü gelenek, ona acı kişisel denemeler olmadan bilgelik hazinelerini verecektir. Pallas'ın onu babasının ne yaptığını bulmaya ve ebeveyninin deneyimini eğitimle kendi deneyimi haline getirmeye göndermesinin nedeni budur; bu, gerçekten de gerçek eğitimdir - bugüne kadarki
ırkın birikmiş bilgi ve bilgeliğine hakim olmak. Dolayısıyla şimdi, yalnızca fiziksel oğlu (ki bu, her zaman şüphe konusu olduğunu belirtir) değil, babasının manevi oğlu olan ve bundan şüphe edilemeyen oğlunun okul dönemine sahip olacağız.

Şimdi bir göz atabileceğimiz Odysseia'nın kendisi Ulysses'in gezintilerini içerir ve dünyayla yüz yüze gelip onu fethetmek zorunda olan yetişkin bir adamın eseridir; böylece hayat deneyimini elde eder. Bu iki kısım her zaman bir araya getirilmelidir - genç adamın eğitimi ve olgun adamın deneyimi; bunlar insan ruhunun
tam bir tarihini oluşturur. İkisi de aslında birdir - tomurcuk ve çiçek; temelde ikisi de aynı şeyi ifade eder - bireyin kendisiyle ve ilahi düzenle uyum içinde olduğu etik bir hayata yükseltilmesi. Gerçek öğrenme ve gerçek deneyim bu amaca ulaşır, ki buna haklı olarak bilgelik denebilir.

Bu yüzden genç Telemakhos, zamanının büyük ve etkileyici gerçeğini, Dönüş olarak adlandırılan derin manevi sorunu
içeren gerçeğini dinlemelidir. Nestor bu Geri Dönenlerin ilk ve en basit olanıdır; o yaşlı bir adamdır, ihtiyatlıdır, tutkusuzdur; ayrıca
sorgulama ruhuna veya Öte'yi arama ruhuna sahip değildir;
yaşın ve karakterin muhafazakarlığı sayesinde
aktarılan dini ve görüşleri sorgusuz sualsiz kabul eder. Açıkça görülüyor ki, o zamanın manevi ayrılığı onun doğasına derinlemesine nüfuz edemedi;
evinden ve ülkesinden uzun süre uzak kalması yabancılaşmaya yol açmadı; Truva'nın düşüşünden sonra doğrudan evine döndü, rüzgarlar ve sular elverişliydi, fırtına yoktu, çalkantı yoktu, ilahi öfke belirtisi yoktu. Ama o
Tanrıların gazabını önceden gördü ve dalganın üzerinden hızla kaçtı,
tanrı ile mücadele onda değildi.

Bu Geri Dönenleri sınıflara göre küçük bir özetlememiz faydalı olacaktır, çünkü bu şekilde hem mevcut Kitabın düşüncesi hem de tüm Odysseia'daki yeri en iyi şekilde görülebilir. Birincisi, geri dönmeyi asla başaramayanlar, ancak bu süreçte yok olanlar; bu sınıfın en büyük örneği, kendi karısı ve sevgilisi tarafından öldürülen lider Agamemnon'un kendisidir. İkincisi, geri dönmeyi başaranlar; Bu sınıftan, okuyucunun zihninde keskin bir şekilde belirtilmesi gereken üç belirgin bölüm vardır.

(1). Doğrudan eve dönenler, içsel bir bölünme veya dışsal bir sorun olmadan; savaşta eskiden kahraman olsalar da bu barışçıl görünümde önemsizdirler. Bunlardan dördü Nestor tarafından konuşmasında şöyle bir geçer: Diomed, Akhilleus'un oğlu Neoptolemus, Philoctetes ve Idomeneus. Nestor'un kendisi, Hellas'tan geçen bu Geri Dönenler grubunun en belirgin ve tipik olanıdır.

(2). Eve dönmeyi başaranlardan ikincisi, Nestor'un ve yakın Yunan dünyasının çok ötesinde olan, Mısır'ı ve Doğu'yu kapsayan Menelaus'tur. Dümencisini gömmek için geciktiği için Nestor'dan ayrıldı; sonra bir fırtına onu vurdu,
Girit'e ve ötesine taşıdı, rüzgar ve dalga onu Nil diyarına
taşıdı. O, Doğu'dan Dönen'dir.

(3). Son olarak, henüz dönmemiş olan, ancak zamanı neredeyse
gelen Ulysses'tir. Diğerleriyle karşılaştırıldığında, Batı'dan Dönen'dir. Ancak onun Dönüşü, şiire adını verir ve şiirin
daha büyük bir parçasıdır.

Yine de evrensel şiir, Dönüşün tüm bu aşamalarını kucaklamalıdır ve oğul, eğitim yoluyla, bunların hepsini deneyimle değil
bilgiyle bilmelidir. Bu nedenle eğitimi, babasının hayatının ona verebileceğinin ötesine ulaşmalıdır; evrensel olmalı ve bu şekilde
gerçek bir disiplin haline gelmelidir. Ayrıca, bu şiirin Ulysses'in Dönüşü'nün ötesine, başlığının ima ettiği şeyin ötesine ulaştığını ve
Helen, Doğu, Batı'nın tüm Dönüşlerini ve
geri dönmedeki büyük başarısızlığı kucakladığını da belirtmeliyiz.

Bunlar, mevcut Kitaptan parıldayan ve
tüm Odysseia'yı aydınlatan düşüncelerden bazılarıdır. Şimdi, Tanrıça tarafından belirlenen iki ayrı bölüme ayrılan Kitabın yapısını ele alabiliriz. Telemakhos'tan ayrılmaya hazırlandığında, Kitabın ikinci bölümüne giriyoruz ve Telemakhos yolculuğuna doğrudan ilahi bir gözetim olmadan devam ediyor. Önceki Kitap Tanrıça'nın gelişiyle işaretlendiği gibi, mevcut Kitap da onun gidişiyle işaretleniyor. Gencin Nestor'la olan ilişkisi, onun doğrudan velayetinin kapsamıdır; böyle bir deneyimden sonra, yolculuğun geri kalanını kendi kaynaklarıyla yapmayı öğrenmelidir. Tanrı bile, tanrıya çok fazla güvenilmemesi gerektiğini öğretiyor. Kitabın ilk bölümü, Nestor'un Dönüşler hikayesini bitirdiği ve bunun başka bir aşaması için Menelaus'a yolculuğu önerdiği 328. satıra kadar uzanıyor: "güneş battı ve karanlık çöktü." İkinci bölüm, Kitabın geri kalanını kapsıyor. Tekrar belirtmeliyiz ki, Homeros'un Üst ve Alt Dünyalara yaptığı temel ayrım, Kitabı bölen şeydir ve böylece ona organik ilkesini verir.

I.

Nestor'un dünyasının dini ortamı daha önce fark edilmişti.
Telemakhos, şiddetin olduğu bir diyardan
buraya gelir; Ithaca'nın hastalıklarına bir çare göstermelidir. Ama şimdi kendini bir adam olarak gösterecektir.
Pallas ona gençlik tevazusunu bir kenara bırakmasını ve babasıyla ilgili soruşturmayı cesurca yapmasını emreder. Ve burada Tanrıça, öğrencinin üzerinde çokça düşünebileceği bir söz söyler: "Bazı şeyleri kendi zihninde düşünürsün, ama Tanrı başkalarını önerir." Yine Homeros'un ikiliği -insan ve ilahi- ve ayrıca bunların uyumu; bu iki unsur her yüce düşüncede veya eylemde bir araya gelmelidir. Bireyin kendisiyle ve Tanrı'yla olan ikili ilişkisi, tüm değerli konuşmalar için gereklidir; kendi etkinliği ve tanrının etkinliği gerçek söylemde olduğu kadar gerçek eylemde de birlikte ilerler. Dolayısıyla tüm şiir, insanın kendi kendine belirlediği enerjiden ve Tanrıların müdahalesinden oluşur; ancak her ikisi de eylemde nihayetinde bir olarak görülmelidir.

Yeni gelenlerden dua etmeleri istenir ve Nestor'un dünyasının karakteristik özelliği olan şu ünlü sözü duyarız: "Bütün insanların Tanrılara ihtiyacı vardır." Bu, oğullarından biri tarafından söylenmiştir. Pallas, yabancılar ve tüm Halk arasında bir uyum hissi uyandıran mutlu bir dua eder. Sempati tamamlanır ve Telemakhos, kendisinin kim olduğunu ve nereden geldiğini söyledikten sonra babasıyla ilgili sorular sormaya devam edebilir. Buna karşılık Nestor, Truva'nın düşüşünden sonra Dönüşlerin kader dolu hikayesini anlatmaya başlar. Onun
anlatımında felaketlerin başlangıç ​​noktasını, Agamemnon ile Menelaus arasındaki farkı, ardından gelen bir dizi ayrılığı görürüz. "Zeus onlar için üzücü bir Dönüş planladı," ancak bu onların kendi hatasıydı, "çünkü hepsi ne bilgeydi ne de adil." Yunan birliğinin tamamen bozulduğu, şehrin ele geçirilmesinden sonra manevi bir bozulmanın başladığı açıktır. Gerçekten de yeni sorun, on yıllık şiddet eğitiminin ardından barışa ve kurumsal düzene bu Dönüştür. Ne kadar adil ve gerekli olursa olsun, tüm savaşların cezası budur; savaş bittikten sonra, savaş bir anda duramaz ve böylece
galipler iki kampa ayrılır ve savaşa devam eder. Nestor bu tekrarlanan bölünmelerin resmini verir; bir, iki, üç kez gedik
olur; önce Agamemnon'dan ayrılır, ikinci kez
Ulysses'ten, üçüncü kez Menelaus'tan. Doğrudan eve gidecektir ve
bu nedenle diğerlerini geride bırakmak zorundadır; ayrılık onda değil, onlardadır; restore edilebilir, aslında kendini restore eder. Yaşlı bir adam olduğu için hala içgüdüsel Truva öncesi karakterine sahiptir; ancak Ulysses
onu kaybetmiştir ve böylece daha önce "Şefler Konseyi'nde veya Halk Meclisi'nde" hiç
fark etmemiş olmalarına rağmen Nestor'dan ayrılır. Ancak Ulysses çok farklı bir yoldan geri dönmek zorundadır ve şimdi
iki bilge adamdan her biri kendi yolunu izler, her ikisi de geri dönmek zorunda olsa da.

Yaşlı Nestor açıkça yeni döneme ait değil, derin ruhsal mücadelenin farkında değil gibi görünüyor. İçgüdüsel olarak
eve gitti, çatışmadan kaçındı; diğerleri gidemedi. İlyada'da
iki bilge adam, Nestor ve Ulysses arasındaki ilişki incelikli ama net bir şekilde çizilmiştir; biri -genç adam- yaratıcı zekaya sahiptir,
diğeri -yaşlı adam- takdir edici zekaya sahiptir. Odysseia'da, ilişki İlyada'da anlatılan ilişkiden açıkça evrilmiştir; biri sınırsız çabalayandır, diğeri ise yerleşik düzendedir.

Bu nedenle Nestor, en azından Odysseia'da ufkunun oldukça dışında yatan Ulysses hakkında fazla bir şey söyleyemez. Sadece bilge adamın geri döneceğine dair umut verebilir. Bu Telemakhos şüphe eder, Pallas'ın huzurunda bile, onu sert bir şekilde azarlayarak, düşük insan ruh hallerinden birine düşer. Bu gerçekten de büyük bir derstir; Tanrıların gerçekliğine inanması gerekir, bu onun gelecekteki tüm ilerlemesinin temelidir, bilgeliğin başlıca kazanımıdır. Genç adam inkar etmemelidir, dünyada ilahi bir düzen olduğu öğretilmelidir. Yaşlı Homeros'un da eğitimde din hakkındaki düşünceleri vardı ve Tanrıça'nın kendisi burada bir ders verirken tanıtılıyor. Nestor, Dönüş hakkında fazla bilgi veremese de, yakın zamanda uzak bir diyardan gelen ve söyleyecek bir şeyi olabilecek ikinci büyük Dönüşçü Menelaus'a işaret edebilir. Aslında
Menelaus, Nestor'dan ayrılan son kişiydi, Ulysses
çok daha önce ayrılmıştı.

Nestor'un büyük bir sempatiyle anlattığı bir diğer hikaye de, Dönüş'ün
daha da farklı bir biçimini temsil eden Agamemnon'un hikayesidir. Yunanlıların büyük lideri, Truva zorluğunun üstesinden gelebilir, hatta
eve ve ülkeye geri dönebilir, ancak bunlar sonunda sadakatsiz eşi tarafından kaybedilir. Yine de, babanın ölümünden sonra, oğul Orestes Aile ve Devleti yeniden kurar. Telemakhos orada kendisinin, annesinin taliplerini öldürecek olan oğlunun bir görüntüsünü görür; ayrıca babasının olası kaderini de görür. Ulysses'in de Agamemnon ile esasen aynı sorunu vardır,
ancak sadakatsiz karısı yoktur; Telemakhos, Yunan bilincine göre
Orestes'in eyleminde görevini görür. Bundan sonra Ulysses'in Agamemnon gibi kendi topraklarında öldürülmemek için nasıl gerekli önlemleri aldığını göreceğiz. Kılık değiştirerek kendi sarayına gidecek ve durumu önceden dikkatlice not edecek ve sonra kurtuluş darbesini
vuracaktır.

Homeros, Odysseia'da birkaç kez Yunanlıların Truva'daki büyük Lideri Agamemnon'un trajik hikayesini tekrarlar.
Kaderin hayranlık uyandıran
bir hikayesi; AEschylus bundan büyük trajedisi Oresteia'yı geliştirecektir. Gerçekten de destan, bu hikayenin tam efsanevi
açılımıyla trajediye dönüşür. AEschylus, motifleri içsel çarpışmalara
derinleştirecek; Agamemnon'da ve hatta
Klytemnestra'da doğruyu ve yanlışı gösterecektir. Orestes, babasının intikamını alma eyleminde ne kadar iyi niyetli olursa olsun, karşı darbeden kaçamayacaktır; Aeschylus annesini öldürme suçundan dolayı Furia'ları peşine gönderecektir. Böylece eylemin çift doğası, ödülü ve cezası, Homeros'tan Aeschylus'a doğru açılır ve şu anda bildiğimiz şekliyle Yunan dramını yaratır.

Nestor şimdi deneyiminin yakın çevresinde yatan şeyi anlatmıştır:
Hellas'tan doğrudan Dönüş. Tekrar son
ayrılmadan bahseder; bu, Menelaus'un Hellas sınırının ötesine, Mısır'a sürüklendiği ve şimdi oradan geri döndüğü zamandı. Sırada ne var? Genç adamın, Doğu'ya uzanan bu daha geniş deneyim çemberine katılması için Sparta'ya gönderilmesi gerektiği açıktır. Dolayısıyla Yunanistan birçok yönden Doğu'ya işaret eder; Tamamen Helenik ruhlu Nestor, daha geniş bilgiyi bilir, ancak bu bilgi kendisine ait değildir ve buna sahip olunması gerektiğini bilir.

Bu Kitapta ve Odysseia'nın diğer yerlerinde de görkemli arka plan Truva Savaşı'dır. İlyada'nın olaylarına neredeyse hiç değinilmez, ancak kesinlikle kabul edilirler; İlyada Sonrası ilgi alanıdır,
çünkü Dönüşler orada gerçekleşir. Böylece Homeros'un iki büyük şiiri
bir araya gelir ve birbirlerinin tamamlayıcısı olarak kendilerini gösterirler.

II.

Şimdi Kitabın ikinci bölümünü işaretleyen ayrılık gelir.

Mentor kılığında Pallas, Telemakhos'a Menelaus'u ziyaret etmesini tavsiye ederken Nestor ile aynı zamana denk gelir ve sonra "bir deniz kartalı gibi yelken açarak" ayrılır, bunun üzerine orada bulunan herkes büyük bir şaşkınlık yaşar.
Yani kendini gösterir; herkes Tanrıça'yı tanır ve muhtemelen
bu yüzden artık kalamaz. O içselleşti.
Telemakhos artık bilinçlidir, çünkü o kaybolur ve kendi
bilgeliğine sahiptir; Pallas'ı görmüştür ve bu yüzden onsuz Sparta'ya gitmelidir.
Artık ona ihtiyacı yoktur, çünkü bilgeliğin yoluna
başlamıştır ve bilgeliği
öğrenir. Derinden dindar bir atmosfere sahip Nestor'un sarayında, o görünebilir; ancak yolculuğu tavsiye etmesine rağmen onunla
Menelaus'a gitmeyi reddeder. Bunların hepsinin, sempatik okuyucu için, bir anlamı vardır. Yine de Pallas, Telemakhos'un kariyerinden hiçbir şekilde
kaybolmamıştır; ancak şu anda, onu
sık sık yaptığı gibi kendi haline bırakmaktadır. Nestor da bu harikulade olaya karakterine uygun şekilde karşılık verir; ona dua ederek yakarır ve büyük bir kurban başlatır, ki bu şimdi oldukça ayrıntılı bir şekilde anlatılmaktadır. Tıpkı Kitabın bir tanrıya yapılan bir kurbanla
açıldığı gibi, bir tanesiyle
kapanır - ikisi tüm
tanımlamanın ortamını oluşturur. Böylece Tanrıların tanınması Nestor'un dünyasında her yerde ortaya konur; o, hiçbir zaman şüphe duymamış, ilkel, doğrudan bir inanç adamıdır.

Telemakhos'un başlangıçta böyle bir adamla karşılaşması ve böyle bir atmosferden
bir nefes alması iyidir. İthaka'nın hastalıklarını çocukluğundan beri görmüştür; zaman zaman Tanrıların denetimini sorgulayabilir. Kendi yaşam deneyimi onu İlahi bir Düzenin varlığından şüphe etmeye yönlendirir. Burada, Pylos'ta bile Olimposluların
üstünlüğüne meydan okur. Nestor babasının geri döneceğini ve Pallas'ın yardımıyla Talipleri cezalandıracağını veya kendisinin aynı Tanrıça'nın yardımıyla bunu yapabileceğini ima ettiğinde, Telemakhos şöyle cevap verir: "Bunun asla olmayacağını düşünüyorum, umarım; hayır, Tanrılar istese bile." Kesinlikle genç bir şüpheci olduğunu gösterir, muhtemelen bir umutsuzluk nöbeti içinde; Tanrıça'nın azarlaması keskindir: "Ey Telemakhos, bu nasıl bir konuşma? Bir Tanrı isterse, bir adamı uzaktan bile kurtarabilir." Böylece o, bir Tanrıça, ölümü engelleyemeseler bile, Tanrıların üstünlüğünü iddia eder. Ancak genç şu anda ısrar eder: "Bundan daha fazla bahsetmeyelim; babam asla geri dönmeyecek." Ancak Nestor,
Egisthus'un oğlu Orestes tarafından cezalandırılmasının hikayesini anlattığında,
suçlu adamı sonunda yakalayan ilahi bir adalet olduğu izlenimi güçlüdür; yaşlı adamın genç şüpheciye verdiği ders budur. Ders bir
masal biçiminde aktarılır, ancak bir anlamı vardır ve Telemakhos
kendini Orestes'in yerine koymaktan kendini alamaz.

O halde, talihsizlikle sarsılan genç adamın Nestor'un sarayında aldığı eğitim budur; Tanrıların Dünya'nın İlahi Düzeni'ndeki yönetimine inanma eğitimi --ki bu, mevcut şiirin temel inancıdır. Telemakhos'un sonunda Pallas'ı görmesi, onun kendisiyle birlikte olduğunu görmesi ve onun varlığını fark etmesi şaşırtıcı değildir. Elbette, artık kişisel bir varlık olarak ortadan kaybolur, keşfedilmiştir; yine de Telemakhos'u Sparta'ya yolculuğuna gönderir. Böylece
Üçüncü Kitap, kendinden önceki Kitaptan ve sonraki Kitaptan kesinlikle farklı, kendine özgü bir karaktere sahiptir. Burada, Tanrılarla doğrudan ilişkisinde ve insanlarının ilkel masumiyetinde pastoral, cennetsi bir din dünyası vardır. İnsanlar
bir sarsıntı veya içsel bölünme olmadan görünürler. Görünüşe göre henüz hiçbir şüphe veya uyumsuzluk girmemiştir; Pylos, mutlak uyumsuzluk diyarı olan İthaka ile yakın zamanda uyumsuzluktan kurtarılmış olan Sparta arasında durmaktadır. Kitap, özel teması olan Dönüş'te tüm Odysseia ile bir ilişki duyar ve bu temanın hükümdar Nestor'da özel bir aşamasını temsil eder.
Muhteşem Dönüş'e, yani Ulysses'e giden yolu hazırlar; bu, tüm şiiri birliğe bağlayan bir bağdır. Üstelik, ruhun savaşçı, yabancılaşmış, düalist durumundan
[...]
1. Sosyal Kurumlar 1.50
2. Devlet 1.50
6. Tarih Psikolojisi.
1. Avrupa Tarihi 1.50
2. Tarihin Babası 1.50
3. Amerikan On Yıl Savaşı 1.50
7. Biyografi Psikolojisi.
1. Abraham Lincoln 1.50
2. Frederick Froebel 1.25

III. 5 ciltlik şiirler. 1. Sakız Adası'ndaki Homeros 1.00
2. Delphie Günleri 1.00
3. Agamemnon'un Kızı 1.00
4. Prorsus Retrorsus 1.00
5. Johnny Appleseed'in Kafiyeleri 1.25

IV. Lincoln Tetralojisi Bir Destan.
1. Kara Şahin Savaşı'nda Lincoln 1.50
2. Lincoln ve Ann Rutledge 1.50
3. Beyaz Saray'daki Lincoln 1.50
4. Richmond'daki Lincoln 1.50

V. Anaokulu.
1. Froebel'in Anne Oyun Şarkıları Üzerine Yorumlar 1.25
2. Froebel'in Oyun Hediyelerinin Psikolojisi 1.25
3. Frederick Froebel'in Hayatı 1.25

VI. Çeşitli. 1. Hellas'ta Bir Yürüyüş 1.25
2. Freeburgers (bir roman) 1.25
3. Dünya Fuarı Çalışmaları 1.25
4. Avrupa'da Bir Tur 1.50
5. Yaratılışında Kitap Yazan Bir Yazar 1.50

A. G. McCLURG & CO., Chicago, Ill. tarafından satışa sunulmuştur.

Denton J. Snider'ın Homeros'un Odysseia'sının Project Gutenberg E-Kitabının Sonu

.
*** END OF TURKISH PART ***
*** END OF THIS PROJECT GUTENBERG EBOOK HOMER'S ODYSSEY ***

***** This file should be named 26275.txt or 26275.zip *****
This and all associated files of various formats will be found in:
        https://www.gutenberg.org/2/6/2/7/26275/

Produced by Steven Giacomelli and the Online Distributed
Proofreading Team at https://www.pgdp.net (This file was
produced from images generously made available by Case
Western Reserve University Preservation Department Digital
Library)


Updated editions will replace the previous one--the old editions
will be renamed.

Creating the works from public domain print editions means that no
one owns a United States copyright in these works, so the Foundation
(and you!) can copy and distribute it in the United States without
permission and without paying copyright royalties.  Special rules,
set forth in the General Terms of Use part of this license, apply to
copying and distributing Project Gutenberg-tm electronic works to
protect the PROJECT GUTENBERG-tm concept and trademark.  Project
Gutenberg is a registered trademark, and may not be used if you
charge for the eBooks, unless you receive specific permission.  If you
do not charge anything for copies of this eBook, complying with the
rules is very easy.  You may use this eBook for nearly any purpose
such as creation of derivative works, reports, performances and
research.  They may be modified and printed and given away--you may do
practically ANYTHING with public domain eBooks.  Redistribution is
subject to the trademark license, especially commercial
redistribution.



*** START: FULL LICENSE ***

THE FULL PROJECT GUTENBERG LICENSE
PLEASE READ THIS BEFORE YOU DISTRIBUTE OR USE THIS WORK

To protect the Project Gutenberg-tm mission of promoting the free
distribution of electronic works, by using or distributing this work
(or any other work associated in any way with the phrase "Project
Gutenberg"), you agree to comply with all the terms of the Full Project
Gutenberg-tm License (available with this file or online at
https://gutenberg.org/license).


Section 1.  General Terms of Use and Redistributing Project Gutenberg-tm
electronic works

1.A.  By reading or using any part of this Project Gutenberg-tm
electronic work, you indicate that you have read, understand, agree to
and accept all the terms of this license and intellectual property
(trademark/copyright) agreement.  If you do not agree to abide by all
the terms of this agreement, you must cease using and return or destroy
all copies of Project Gutenberg-tm electronic works in your possession.
If you paid a fee for obtaining a copy of or access to a Project
Gutenberg-tm electronic work and you do not agree to be bound by the
terms of this agreement, you may obtain a refund from the person or
entity to whom you paid the fee as set forth in paragraph 1.E.8.

1.B.  "Project Gutenberg" is a registered trademark.  It may only be
used on or associated in any way with an electronic work by people who
agree to be bound by the terms of this agreement.  There are a few
things that you can do with most Project Gutenberg-tm electronic works
even without complying with the full terms of this agreement.  See
paragraph 1.C below.  There are a lot of things you can do with Project
Gutenberg-tm electronic works if you follow the terms of this agreement
and help preserve free future access to Project Gutenberg-tm electronic
works.  See paragraph 1.E below.

1.C.  The Project Gutenberg Literary Archive Foundation ("the Foundation"
or PGLAF), owns a compilation copyright in the collection of Project
Gutenberg-tm electronic works.  Nearly all the individual works in the
collection are in the public domain in the United States.  If an
individual work is in the public domain in the United States and you are
located in the United States, we do not claim a right to prevent you from
copying, distributing, performing, displaying or creating derivative
works based on the work as long as all references to Project Gutenberg
are removed.  Of course, we hope that you will support the Project
Gutenberg-tm mission of promoting free access to electronic works by
freely sharing Project Gutenberg-tm works in compliance with the terms of
this agreement for keeping the Project Gutenberg-tm name associated with
the work.  You can easily comply with the terms of this agreement by
keeping this work in the same format with its attached full Project
Gutenberg-tm License when you share it without charge with others.

1.D.  The copyright laws of the place where you are located also govern
what you can do with this work.  Copyright laws in most countries are in
a constant state of change.  If you are outside the United States, check
the laws of your country in addition to the terms of this agreement
before downloading, copying, displaying, performing, distributing or
creating derivative works based on this work or any other Project
Gutenberg-tm work.  The Foundation makes no representations concerning
the copyright status of any work in any country outside the United
States.

1.E.  Unless you have removed all references to Project Gutenberg:

1.E.1.  The following sentence, with active links to, or other immediate
access to, the full Project Gutenberg-tm License must appear prominently
whenever any copy of a Project Gutenberg-tm work (any work on which the
phrase "Project Gutenberg" appears, or with which the phrase "Project
Gutenberg" is associated) is accessed, displayed, performed, viewed,
copied or distributed:

This eBook is for the use of anyone anywhere at no cost and with
almost no restrictions whatsoever.  You may copy it, give it away or
re-use it under the terms of the Project Gutenberg License included
with this eBook or online at www.gutenberg.org

1.E.2.  If an individual Project Gutenberg-tm electronic work is derived
from the public domain (does not contain a notice indicating that it is
posted with permission of the copyright holder), the work can be copied
and distributed to anyone in the United States without paying any fees
or charges.  If you are redistributing or providing access to a work
with the phrase "Project Gutenberg" associated with or appearing on the
work, you must comply either with the requirements of paragraphs 1.E.1
through 1.E.7 or obtain permission for the use of the work and the
Project Gutenberg-tm trademark as set forth in paragraphs 1.E.8 or
1.E.9.

1.E.3.  If an individual Project Gutenberg-tm electronic work is posted
with the permission of the copyright holder, your use and distribution
must comply with both paragraphs 1.E.1 through 1.E.7 and any additional
terms imposed by the copyright holder.  Additional terms will be linked
to the Project Gutenberg-tm License for all works posted with the
permission of the copyright holder found at the beginning of this work.

1.E.4.  Do not unlink or detach or remove the full Project Gutenberg-tm
License terms from this work, or any files containing a part of this
work or any other work associated with Project Gutenberg-tm.

1.E.5.  Do not copy, display, perform, distribute or redistribute this
electronic work, or any part of this electronic work, without
prominently displaying the sentence set forth in paragraph 1.E.1 with
active links or immediate access to the full terms of the Project
Gutenberg-tm License.

1.E.6.  You may convert to and distribute this work in any binary,
compressed, marked up, nonproprietary or proprietary form, including any
word processing or hypertext form.  However, if you provide access to or
distribute copies of a Project Gutenberg-tm work in a format other than
"Plain Vanilla ASCII" or other format used in the official version
posted on the official Project Gutenberg-tm web site (www.gutenberg.org),
you must, at no additional cost, fee or expense to the user, provide a
copy, a means of exporting a copy, or a means of obtaining a copy upon
request, of the work in its original "Plain Vanilla ASCII" or other
form.  Any alternate format must include the full Project Gutenberg-tm
License as specified in paragraph 1.E.1.

1.E.7.  Do not charge a fee for access to, viewing, displaying,
performing, copying or distributing any Project Gutenberg-tm works
unless you comply with paragraph 1.E.8 or 1.E.9.

1.E.8.  You may charge a reasonable fee for copies of or providing
access to or distributing Project Gutenberg-tm electronic works provided
that

- You pay a royalty fee of 20% of the gross profits you derive from
     the use of Project Gutenberg-tm works calculated using the method
     you already use to calculate your applicable taxes.  The fee is
     owed to the owner of the Project Gutenberg-tm trademark, but he
     has agreed to donate royalties under this paragraph to the
     Project Gutenberg Literary Archive Foundation.  Royalty payments
     must be paid within 60 days following each date on which you
     prepare (or are legally required to prepare) your periodic tax
     returns.  Royalty payments should be clearly marked as such and
     sent to the Project Gutenberg Literary Archive Foundation at the
     address specified in Section 4, "Information about donations to
     the Project Gutenberg Literary Archive Foundation."

- You provide a full refund of any money paid by a user who notifies
     you in writing (or by e-mail) within 30 days of receipt that s/he
     does not agree to the terms of the full Project Gutenberg-tm
     License.  You must require such a user to return or
     destroy all copies of the works possessed in a physical medium
     and discontinue all use of and all access to other copies of
     Project Gutenberg-tm works.

- You provide, in accordance with paragraph 1.F.3, a full refund of any
     money paid for a work or a replacement copy, if a defect in the
     electronic work is discovered and reported to you within 90 days
     of receipt of the work.

- You comply with all other terms of this agreement for free
     distribution of Project Gutenberg-tm works.

1.E.9.  If you wish to charge a fee or distribute a Project Gutenberg-tm
electronic work or group of works on different terms than are set
forth in this agreement, you must obtain permission in writing from
both the Project Gutenberg Literary Archive Foundation and Michael
Hart, the owner of the Project Gutenberg-tm trademark.  Contact the
Foundation as set forth in Section 3 below.

1.F.

1.F.1.  Project Gutenberg volunteers and employees expend considerable
effort to identify, do copyright research on, transcribe and proofread
public domain works in creating the Project Gutenberg-tm
collection.  Despite these efforts, Project Gutenberg-tm electronic
works, and the medium on which they may be stored, may contain
"Defects," such as, but not limited to, incomplete, inaccurate or
corrupt data, transcription errors, a copyright or other intellectual
property infringement, a defective or damaged disk or other medium, a
computer virus, or computer codes that damage or cannot be read by
your equipment.

1.F.2.  LIMITED WARRANTY, DISCLAIMER OF DAMAGES - Except for the "Right
of Replacement or Refund" described in paragraph 1.F.3, the Project
Gutenberg Literary Archive Foundation, the owner of the Project
Gutenberg-tm trademark, and any other party distributing a Project
Gutenberg-tm electronic work under this agreement, disclaim all
liability to you for damages, costs and expenses, including legal
fees.  YOU AGREE THAT YOU HAVE NO REMEDIES FOR NEGLIGENCE, STRICT
LIABILITY, BREACH OF WARRANTY OR BREACH OF CONTRACT EXCEPT THOSE
PROVIDED IN PARAGRAPH F3.  YOU AGREE THAT THE FOUNDATION, THE
TRADEMARK OWNER, AND ANY DISTRIBUTOR UNDER THIS AGREEMENT WILL NOT BE
LIABLE TO YOU FOR ACTUAL, DIRECT, INDIRECT, CONSEQUENTIAL, PUNITIVE OR
INCIDENTAL DAMAGES EVEN IF YOU GIVE NOTICE OF THE POSSIBILITY OF SUCH
DAMAGE.

1.F.3.  LIMITED RIGHT OF REPLACEMENT OR REFUND - If you discover a
defect in this electronic work within 90 days of receiving it, you can
receive a refund of the money (if any) you paid for it by sending a
written explanation to the person you received the work from.  If you
received the work on a physical medium, you must return the medium with
your written explanation.  The person or entity that provided you with
the defective work may elect to provide a replacement copy in lieu of a
refund.  If you received the work electronically, the person or entity
providing it to you may choose to give you a second opportunity to
receive the work electronically in lieu of a refund.  If the second copy
is also defective, you may demand a refund in writing without further
opportunities to fix the problem.

1.F.4.  Except for the limited right of replacement or refund set forth
in paragraph 1.F.3, this work is provided to you 'AS-IS' WITH NO OTHER
WARRANTIES OF ANY KIND, EXPRESS OR IMPLIED, INCLUDING BUT NOT LIMITED TO
WARRANTIES OF MERCHANTIBILITY OR FITNESS FOR ANY PURPOSE.

1.F.5.  Some states do not allow disclaimers of certain implied
warranties or the exclusion or limitation of certain types of damages.
If any disclaimer or limitation set forth in this agreement violates the
law of the state applicable to this agreement, the agreement shall be
interpreted to make the maximum disclaimer or limitation permitted by
the applicable state law.  The invalidity or unenforceability of any
provision of this agreement shall not void the remaining provisions.

1.F.6.  INDEMNITY - You agree to indemnify and hold the Foundation, the
trademark owner, any agent or employee of the Foundation, anyone
providing copies of Project Gutenberg-tm electronic works in accordance
with this agreement, and any volunteers associated with the production,
promotion and distribution of Project Gutenberg-tm electronic works,
harmless from all liability, costs and expenses, including legal fees,
that arise directly or indirectly from any of the following which you do
or cause to occur: (a) distribution of this or any Project Gutenberg-tm
work, (b) alteration, modification, or additions or deletions to any
Project Gutenberg-tm work, and (c) any Defect you cause.


Section  2.  Information about the Mission of Project Gutenberg-tm

Project Gutenberg-tm is synonymous with the free distribution of
electronic works in formats readable by the widest variety of computers
including obsolete, old, middle-aged and new computers.  It exists
because of the efforts of hundreds of volunteers and donations from
people in all walks of life.

Volunteers and financial support to provide volunteers with the
assistance they need, is critical to reaching Project Gutenberg-tm's
goals and ensuring that the Project Gutenberg-tm collection will
remain freely available for generations to come.  In 2001, the Project
Gutenberg Literary Archive Foundation was created to provide a secure
and permanent future for Project Gutenberg-tm and future generations.
To learn more about the Project Gutenberg Literary Archive Foundation
and how your efforts and donations can help, see Sections 3 and 4
and the Foundation web page at https://www.pglaf.org.


Section 3.  Information about the Project Gutenberg Literary Archive
Foundation

The Project Gutenberg Literary Archive Foundation is a non profit
501(c)(3) educational corporation organized under the laws of the
state of Mississippi and granted tax exempt status by the Internal
Revenue Service.  The Foundation's EIN or federal tax identification
number is 64-6221541.  Its 501(c)(3) letter is posted at
https://pglaf.org/fundraising.  Contributions to the Project Gutenberg
Literary Archive Foundation are tax deductible to the full extent
permitted by U.S. federal laws and your state's laws.

The Foundation's principal office is located at 4557 Melan Dr. S.
Fairbanks, AK, 99712., but its volunteers and employees are scattered
throughout numerous locations.  Its business office is located at
809 North 1500 West, Salt Lake City, UT 84116, (801) 596-1887, email
business@pglaf.org.  Email contact links and up to date contact
information can be found at the Foundation's web site and official
page at https://pglaf.org

For additional contact information:
     Dr. Gregory B. Newby
     Chief Executive and Director
     gbnewby@pglaf.org


Section 4.  Information about Donations to the Project Gutenberg
Literary Archive Foundation

Project Gutenberg-tm depends upon and cannot survive without wide
spread public support and donations to carry out its mission of
increasing the number of public domain and licensed works that can be
freely distributed in machine readable form accessible by the widest
array of equipment including outdated equipment.  Many small donations
($1 to $5,000) are particularly important to maintaining tax exempt
status with the IRS.

The Foundation is committed to complying with the laws regulating
charities and charitable donations in all 50 states of the United
States.  Compliance requirements are not uniform and it takes a
considerable effort, much paperwork and many fees to meet and keep up
with these requirements.  We do not solicit donations in locations
where we have not received written confirmation of compliance.  To
SEND DONATIONS or determine the status of compliance for any
particular state visit https://pglaf.org

While we cannot and do not solicit contributions from states where we
have not met the solicitation requirements, we know of no prohibition
against accepting unsolicited donations from donors in such states who
approach us with offers to donate.

International donations are gratefully accepted, but we cannot make
any statements concerning tax treatment of donations received from
outside the United States.  U.S. laws alone swamp our small staff.

Please check the Project Gutenberg Web pages for current donation
methods and addresses.  Donations are accepted in a number of other
ways including including checks, online payments and credit card
donations.  To donate, please visit: https://pglaf.org/donate


Section 5.  General Information About Project Gutenberg-tm electronic
works.

Professor Michael S. Hart was the originator of the Project Gutenberg-tm
concept of a library of electronic works that could be freely shared
with anyone.  For thirty years, he produced and distributed Project
Gutenberg-tm eBooks with only a loose network of volunteer support.


Project Gutenberg-tm eBooks are often created from several printed
editions, all of which are confirmed as Public Domain in the U.S.
unless a copyright notice is included.  Thus, we do not necessarily
keep eBooks in compliance with any particular paper edition.


Most people start at our Web site which has the main PG search facility:

     https://www.gutenberg.org

This Web site includes information about Project Gutenberg-tm,
including how to make donations to the Project Gutenberg Literary
Archive Foundation, how to help produce our new eBooks, and how to
subscribe to our email newsletter to hear about new eBooks.
