*** START OF AKTAHEADER ***
Başlık: Needlework As Art (İğne İşi Sanat Olarak)
Yazar: Marian Alford
Yayın Tarihi: November 14, 2009 [EBook #30472]
Dil: English
Link: https://www.gutenberg.org/ebooks/30472
Çeviri: Python-deep_translator-GoogleTranslator
Kategori: tarih
*** END OF AKTAHEADER ***
The Project Gutenberg EBook of Needlework As Art, by Marian Alford

This eBook is for the use of anyone anywhere at no cost and with
almost no restrictions whatsoever.  You may copy it, give it away or
re-use it under the terms of the Project Gutenberg License included
with this eBook or online at www.gutenberg.org


Title: Needlework As Art

Author: Marian Alford

Release Date: November 14, 2009 [EBook #30472]

Language: English

Character set encoding: ASCII

*** START OF THIS PROJECT GUTENBERG EBOOK NEEDLEWORK AS ART ***

*** START OF TURKISH PART ***
Julia Miller, jenniemuse, Sam W. ve http://www.pgdp.net adresindeki Çevrimiçi Dağıtılmış Düzeltme Ekibi tarafından üretilmiştir (Bu dosya The Internet Archive/American Libraries tarafından cömertçe sağlanan
resimlerden üretilmiştir.)

Yazıcının Notu

Hançer sembolleri + işareti olarak gösterilmiştir. Bir dişi/Venüs sembolü bir kez geçer (üstünde bir daire olan + işareti) ve bu şekilde belirtilir. Üst simgeli karakterleri belirtmek için bir karat
(^) kullanılır. Shush kelimesinin u harfinin üzerinde bir breve (u şeklinde sembol) vardır. Bu e-metnin bu versiyonunda bunun yerine bir sirkumfleks kullanılmıştır--Shush.

Orijinal metin bir düzeltme listesi içeriyordu. Bu metinde düzeltmeler yapılmış ve liste yalnızca referans amaçlı olarak kitabın sonuna taşınmıştır.

Diğer notlar kitabın sonunda bulunabilir.

SANAT OLARAK İĞNE İŞLERİ



LADY M. ALFORD

[İllüstrasyon]

Londra:
SAMPSON LOW, MARSTON, SEARLE VE RIVINGTON,
CROWN BUILDINGS, 188, FLEET STREET.
1886.

[_Tüm hakları saklıdır._]

LONDRA:
GILBERT AND RIVINGTON, LIMITED,
ST. JOHN'S SQUARE TARAFINDAN BASILMIŞTIR.

[İllüstrasyon: TELEMACHUS PENELOPE]

KRALİÇE'YE

İZİNLE ADANMIŞTIR.


KRALİÇE'YE

.

_ Majestelerinin "Sanat Olarak İğne İşleri" adlı kitabımın Adanmasını en nazik şekilde kabul etmesi, konuya değerini ve benim ona adaletli davranamama

gösteren bir ışık tutuyor. Yine de, günümüzün sanatsal literatüründe bir boşluğu doldurabileceğimi umuyorum ve eserimi sadık bir bağlılıkla Majestelerinin ayaklarına bırakmaya cesaret ediyorum._

MARIAN M. ALFORD.

ÖNSÖZ.

1880'de Güney Kensington'daki Kraliyet Okulu için editörlüğünü yaptığım "Handbook of Art Needlework"ün Önsözünde, özellikle işlemeli duvar süsleri, mobilyalar, elbiseler ve daha küçük lüks nesnelere uygulanan dekoratif sanatın işlenmesinde tasarım, renk ve sağduyulu yöntemlere ayrılmış ikinci bir bölüm yazmayı üstlendim.

O zamandan beri koşullar beni bu niyetimi yeniden gözden geçirmeye zorladı; ve Doğu ve Batı kaynaklarından topladığım bilgileri, bir el kitabında iletilmesi gereken teknik talimatları hiçbir şekilde geçersiz kılmayan veya onlara müdahale etmeyen ayrı bir eser biçiminde sunmayı daha uygulanabilir buldum. Nakış sanatının tarihini kendi başıma öğrenmekten ve ulusal okulların başlangıcını ve etkileşimlerini izlemekten o kadar çok keyif aldım ki, okuyucularımın bazılarında benzer bir ilgi uyandırabileceğimi ve bu şekilde yetenekli olanları, bu son günlerde işgal etmesine izin verilenden daha yüksek bir yere
yükseltmeye ve yardım etmeye teşvik edebileceğimi ummaktan başka bir şey yapamıyorum. İğne işi sanatına çok önemli bir yer verdiysem, yazarken, dekoratif nakışın ön plana çıktığını ve şu anda günün hobilerinden biri olduğunu belirtmek isterim; ve kendi içinde sanatın tüm gerekli unsurlarını içerdiğini belirtmek isterim; hayal gücünü ve fanteziyi çalıştırabilir; dilini ifade etmek ve güzelliğini mükemmelleştirmek için biçim, renk ve kompozisyon konusunda eğitime ve deneyimli bir elin zanaatına ihtiyaç duyar.

Bu görevi üstlendiğimde, Alman, Fransız ve İngiliz yazarlarda bulunan, en azından bu yüzyılda, aramızda yalnızca ikincil bir sanat olarak kabul edilen ve bu nedenle de pek de önemli olmayan birçok duyuruyu toplamak ve özetlemek için harcayacağım zamanı tahmin etmediğimi itiraf ediyorum. İğne işiyle ilgili yüzeysel duyurular, sanatla ilgili hemen hemen her kitapta yer almaktadır; tekstil başlığı altında, heykel, mimari veya resimle birlikte anılmasa da, nakışın dikkate değer olduğu kabul edilir, ancak
işleri ne kadar güzel veya düşünceli bir şekilde yapılırsa yapılsın. Daha yüksek bir takdiri hak ettiğini göstermeye çalıştım. İlk niyetim, günümüz nakışlarımızı nasıl etkilediğini iyi veya kötü olsun, STİLİ ele almak ve
geleceğin bir sonraki aşamasında ona rehberlik edecek bazı kurallar bulmaktı. Ancak
stilin dalgalanmalarını ve bunların nedenlerini araştırdığımızda, bunların tarihsel bir ardışıklığa sahip olduğunu ve başlangıçtan başlayıp bunları insanlığın yaşamı boyunca izlememiz gerektiğini
görüyoruz.

Bu, beni ardışık stillerin, bunların örtüşmelerinin ve varyasyonlarının bir taslağını yapmaya yöneltti.

Daha sonra TASARIM, DESENLER, DİKİŞLER, MALZEMELERİN her birinin ayrı bir çalışma gerektirdiğini
buldum.

Renk, boyalara uygulandığında, ressamın paletindeki pigmentlerden farklı olarak kabul edilmeyi
iddia ediyor.

ASKILAR, ELBİSELER ve KİLİSE İŞLEMELERİ her biri farklı kurallar ve geçmiş yüzyılların en iyi örneklerinin incelenmesini gerektiriyor.

Son olarak, dekoratif çalışmalardaki kendi yeterliliğimiz üzerinde durmak doğal görünüyor. İNGİLİZ NAKIŞI her zaman mükemmel olmuştur; ve bu mesleğe tekrar döndüğümüzde, eskiden neler yaptığımızı hatırlamaya değer.

Bu konularla ilgili bölümler yazarken, tarihi ve estetik soruları teknik kurallardan ve doğal olarak bir el kitabına ait olan talimatlardan ayırmanın en uygun olduğunu gördüm; bu el kitabının amacı en basit olanı yapmanın ve en iyi işleri işlemenin en kolay ve en ortodoks yolunu öğretmek olmalıdır.

Bu tür sorular arkeolojik araştırmalarla veya yalnızca tasarımcıya fayda sağlayan bilgilerle örtülmemelidir; ancak
elbette tasarım bilgisinin zanaatın eğitiminin bir parçası olması en iyisidir.

Belki de bilgililer için çok sığ, ciddiyetsizler için çok derin, genel halk için çok teknik ve zanaatın uzmanları için çok dağınık bir kitap yazdığım görülebilir.[1]

Bu eleştirileri, sanat hakkında hiçbir şey bilmeyen ve orada burada bilgi aramakla çok meşgul olanların yararına yazdığımı söyleyerek eleştirmeliyim; ancak kadın oldukları için süs iğne işlerini seçmek ve yapmak zorundalar; veya sanatçı oldukları için günlük ev kullanımındaki süslemelerdeki uyumsuzluklardan ve niyet eksikliğinden rahatsız olanlar; ayrıca tasarımcıya desenlerin ve dikişlerin tarihi hakkında bir şeyler bilmesi için yardımcı olmaya çalıştım.

Okuyucularım tekrarların farkındaysa, onları affetmeliler;
aynı fikrin bazen, hangi amaçla kullanılacağına göre farklı bir bakış açısıyla ele alınması gerektiğini unutmayın. Aynı malzeme duvar süsleri ve giysiler için kullanılabilir ve daha sonra formüle edilen ilkeler değiştirilmelidir. Tekrarlardan kaçınmam, eğer anlamımı açıklığa kavuşturuyorsa, Wellington Dükü'nün özel sekreterine verdiği talimatı hatırlarım, "Tekrarları boş ver; ve i'lerini noktala."

Bu bölümlerin bazı kısımları 1881'de _Nineteenth Century_'nin 49. sayısında[2] yayınlanmıştır; ve aynı yıl üç yayınlanmamış derste daha fazlası verilmiştir.

Alıntıladığım gerçekler için her sayfada otoritelerimi kabul ettim ve not ettim. Orijinal olmayan resimler, yazarların ve yayıncıların izniyle diğer çalışmalardan kopyalanmıştır.
Bunların hepsine, özellikle de bana levhalarını kullanma izni verdikleri için Bay Villiers Stuart, Dr. Anderson, Sir G. Birdwood ve Sir H. Layard'a yükümlülüklerimi ve teşekkürlerimi ifade etmek istiyorum. Eski ve değerli dostum Bay Newton'a, kitabımı eleştirmek ve düzeltmek, onu halka
vermem için beni teşvik etmek ve yayınlanmaya daha
değerli hale getirmek için verdiği sınırsız zaman ve zahmet hediyeleri için minnettarlığımı ifade etmek istiyorum.

Charles Blanc ("Ornament in Dress", İngilizce
çeviri), Von Bock ("Liturgische Gewaender"), Dr. Rock ("The Church
of our Fathers" ve "Introduction to Textiles"), Semper ("Der Stil"),
Yates ("Textrinum Antiquorum") ve Yule ("Marco Polo")'dan ve diğer birçok kişiden büyük ölçüde alıntı yaptım. Ancak bu otoriteler sıklıkla farklılık gösterir ve argümanlarını tarttıktan sonra kendi görüşlerimle uyuşan gerçekleri ve teorileri kendi kullanımım için seçmeye cesaret ettim. Gerçekler sıklıkla o kadar birbirine bağımlı ve sıkı bir şekilde bağlantılıdır ki, birbirlerine veya yazarın önceden tasarlanmış fikirlerine uymaları için (ne kadar kasıtsız olursa olsun) nerede şekillendirildiklerini veya renklendirildiklerini ayırt etmek büyük bir özen gerektirir. Gerçeklerin, onları asacakları bir teorinin ipliği bulunana kadar işe yaramaz yığınlar olduğu kesindir. Bu işlem, incileri dizme işlemi gibi, her biri doğru yerini işgal edene kadar sık ​​sık tekrarlanmalıdır. Sadece bir teoriyi benimsemiş ve benimsemiş olanlar, ipliği kesmenin, bir inci gibi görünen ancak tarih veya yer açısından yanlış konumundan veya şüpheli kökeninden dolayı yalnızca boş bir cam boncuk olduğu ortaya çıkan şeyi yerinden oynatmanın acısını takdir edebilir. Bu bana birden fazla kez oldu; ve derslerimi okuduğumdan beri
birkaç durumda
fikirlerimi değiştirmek zorunda kaldım. Bu nedenle,
okuyucularımdan herhangi biri bu tür değişiklikleri fark ederse, umarım
her konuda bana doğru bir izlenim veren
şeyi aktarmaya çalıştığım için bana kredi verirler.

DİPNOTLAR:

[1] Sanatın yanı sıra, iğne işi arkeolojisinden de bir şeyler vermeye çalıştım. Şimdi, bu tür konularda öğretmen olmak için gereken niteliklere
bir arada, nadiren rastlanıyor. Bay Newton, "Sanat ve Arkeoloji Üzerine Denemeler" adlı eserinde, s. 37, "arkeolog, sanatçının estetik kültürüyle, tarihçinin ve filologun eğitimli yargısıyla, sınıflandırma ve yorumlama için gereken eleştirel zekâyı birleştirmelidir; ayrıca, incelemeye her zaman eşlik etmesi gereken ve kanıt garantisini önceleyen o alışılmış şüphe, zihnine fazla şüpheci bir önyargı vermemelidir." Bu tür otoriteler
konumun her bir bölümü için sorguya çekildi.

[2] Editörün izniyle alıntılanmıştır.

İÇERİK.

SAYFA
GİRİŞ. 1

BÖLÜM I.--STİL.

Stil tanımı--Stil gelişimi--İlkel--
Arkaik--Mısır--Babil--Fenike etkileri
erken Yunan stilinde--Çöldeki Tabernacle'ın
askılarının dekorasyonu--Aryan fikirleri--Manu Kanunu--Hint sanatı--Kelt stili--Giyim ve nakışlarda Yunan sanatı--Homeros'un nakış tasvirleri--Pallas
Athene--Aşil'in Kalkanı--Roma sanatı--Bizans sanatı--Orta Asya'nın
Sanatı--Avrupa'ya gelişi--Çin, Japonya ve Cava'nın
Sanatı--Hristiyan sanatı--İskandinav sanatı--Karanlık
Çağlar--Sicilya tekstil sanatı--Rönesans--Arabesk--
Grotesk--İspanyol Plateresk--Kraliçe Anne ve
Chippendales'in stili--XV. Louis. stil--Klasik canlanma--Genç
İngiltere stili--On dokuzuncu yüzyıl stili 14

BÖLÜM II.--TASARIM.

Sanatçı ve zanaatkar--Tarih öncesi tasarım--Doğal
tasarım--Mısır değişmezliği--Tasarımın yavaş evrimi--Yunan mükemmelliği--Kurallara uyma zorunluluğu--M.
Blanc'ın süsleme yasaları--Kompozisyon yasaları--
Tekrar--Alternatif--Simetri--İlerleme--Karmaşa--
Askılar ve elbise malzemeleri için tasarımlar--Çiçek tasarımı--Halılar için tasarım--Geleneksel--İlk ilkeler 54

BÖLÜM III.--DESENLER. Desenlerin ataları--Sınıflandırma--Tarihsel
değerleri--İlkel desenler--Dalga--Tartan--Tarih öncesi
Afrika desenleri--Doğalcı--Çiçekler--Kabuklar--Doğalcı
desenlerin Hint
formları--Mısır--Lotus--
Ayçiçeği--Kelt Zoomorfik desenler--Yunan tekstillerindeki insan
figürü--Doğu desenlerindeki hayvan formları--Sembolik
ve geleneksel desenler--Dalga desenleri--Palmiye yaprağı--
Koni--Gotik--Arap--Fas--Kutsal Hom--Yumurta ve
dil--Haç--Gamalı haç--Fylfote--Gammadion--Zirveli
desen--Ninevi papatyası--Amblematik
desenler--Bestiaria--Volucraria--Lapidaria--Bizans
desenleri--Gotik--Rönesans--Bulut desen--Fundata--İtalyan--Fransız desenleri--Radyasyon desenleri--Kabuk--Tekrarlama ile desenler--Balkon deseni--Çin
hasır işi--Bir desenin hayatta kalması--Opus
Alexandrinum--Yorgan desenleri 82

BÖLÜM IV.--MALZEMELER.

Hammaddeler--Mikroskopun ifşaları--Kenevir--Jüt--
Honduras otu--Spartum--Pinna ipeği--Saç--Deri--
Tüyler--Asbest--Mercan--İnciler--Boncuklar--Yün--Klasik
yün uyarıları--Antikler tarafından yünün dikkatlice
geliştirilmesi--Tanaquil--Homeros yün halıları--Kırmızı
tekstil parçaları--İskandinav yün giysileri--Yünün
nitelikleri--İngiliz yünü--Keçi kılı--Keten--Göl şehirleri--
Byssus--Mısır'ın ince keteni--Atrebates--Keten
üzerine işleme--Pamuk--Hint kökenli--Carbasa--Buckram--Pamuk
kumaşlar--Altın--Gümüş--Altın brokarlar--Yahudi--Hint--
Çin--Darius'un elbisesi--Attalus--Attalos tekstilleri--
Agrippina'nın altın giysileri--Aziz Cecilia'nın pelerini--Roma
mezarları--Altın tel--Anglosakson mezarı--Childeric'in mezarı--Proba'nın
altın ipliği--Henry I. ve Henry III.'ün mezarlarından altın sargılar--Orta Çağ altın işlemeleri ve kuyumcu işleri--Pullar--Emayeler--Purl--Modern altın okulları
işleme--İpek--Kos Broşürü--İpeğin erken örnekleri
kumaşlar--Çin ipekleri--Seres--Mela--Seneca--M. Terrien
de la Couperie--İmparatoriçe Si-ling-chi--Hotan
Prensesi--Euripides--Lucan--Plinius--Roma'da İpek--AElius
Lampridius--Flavius ​​Vopiscus--Terzi faturası--Justinianus'un
kodeksleri--İmparatorluk tekeli--Silentiary'li Pavlus--Bede--Kral
John'un hayaleti--Yunan ve Sicilya'daki ipek fabrikaları--Farklı dönemlerin ayırt edici işaretleri--Lyons--İspanya--
İtalya--Flaman kasabaları--Marco Polo--Saten--Gal şiiri, "Çeşmenin
Hanımı"--Chaucer--Kadife--Çalışmanın yeni
malzemelere aktarılması 118

BÖLÜM V.--RENK.

Uyum ve uyumsuzluk--Renk tonlarının adları--Teoriler için
yetkililer--Renklendirme sanatı--Renklendirmenin ifadesi--
Mor--Kırmızı--Kızıl--Mavi--Sarı--Plinius--Renouf--Çin
renkleri--Hint boyaları--Pers renkleri--Galyalıların
-Romalıların--İskoç boyaları--Renk skalaları--MM. Charton ve
Chevreul renk tonları üzerine--Gaz renkleri 175

BÖLÜM VI.--DİKİŞLER.

Dikişler--Bölüm I.: İğne--Gammer Gurton'un iğnesi--İğne işi
sanatı--Dikiş listeleri--Bölüm II.: Düz iş--
Dikiş--Bayan Floyer--Beyaz nakış--Rahibelerin işi--
Yunan--Alman--İspanyol--İtalyan beyaz işi--Semper'in
beyaz iş kuralları--Bölüm III.: Opus Phrygium--Altın
işlemeler--Bölüm IV.: Opus pulvinarium--Yastık dikişleri--
Mozaik dikişleri--Kalde ve Asur'dan geleneksel süslemeler--Alman ve İtalyan desen kitapları--Bölüm V.: Opus
plumarium--Plumarii--Hindistan'ın tüy işi--Pasifik

Adaları--Afrika işi--Meksika ve Peru--Cluny
üçlü--Aziz Charles Borromeo'nun mitresi--Deneme
Denis--Çin ve Japon tüy dikişleri--Bölüm VI.:
Opus consutum veya kesme işi--Patchwork--Mısır ve Yunan
örnekler--İrlanda kesim işi--Chaucer--Francis I.'in Cluny'deki perdeleri--Lord Beauchamp'ın perdeleri--İspanyol örnekleri--
Açıklamalar--Uygulama sanatı--Bölüm VII.: Dantel--Opus
filatorium--Bayan Palliser--M. Blanc--Gipür--Sir Gardiner
Wilkinson--Ağ dantel--Homeros--Süleyman Tapınağı--Bobin
danteller--Yak--Renkli danteller--Venedik lüks yasaları--Altın
danteller--Point d'Alencon--Bay A. Cole'un dersleri--M. Urbani
de Gheltof Venedik dantelleri hakkında--Dantel dikişleri--Dantelin yeniden canlanması
Burano'daki okul--İngiliz dantelleri--Bölüm VIII.: Goblen--Opus
pectineum--Goblen dokuma yöntemleri--Büyük antik çağı--
Mısır tezgahları--Albert Castel goblenler hakkında--Homeros
resim dokumacılığı--Arachne--Lord Houghton'un bir yorumu--
Nomenticum--Sidonius Apollinaris--Sarazen dokumacılığı--Arras--
Brüksel--Floransa, Milano ve
Mantua'dan İtalyan goblenleri--Fransız goblenleri--Cluny Müzesi koleksiyonu--Goblenler--
Beauvais--İngiliz gobleni--Komnenus--Matthew Paris--Arras ile
erken ticaret--Coventry goblenler--Chaucer--Goblen
"verd"--Hatfield goblenleri--Armada goblenleri--Sir F.
Crane--Mortlake imalathanesi--Francis Cleyne--Raphael
çizgi filmler--Lambeth'ten Percy gobleni 194

BÖLÜM VII.--ASKILAR.

Klasik asmalar--Babil ve Pers--Semper'in
teorisi--Vahşi doğadaki kutsal alan--St. Peter's at
Roma--Abulfeda--Ekber'in çadırı--Nadir Şah'ın çadırı--Pers Hanı'nın çadırı--Büyük İskender'in çadırları at
İskenderiye--Roma asmaları--Cenaze ateşleri--Kosroes'in
çadırı--Semper'in asma süslemeleri kuralları--Antik
halılar--İngiliz ve Fransız asmaları--Asma tasarımları için kurallar
260

BÖLÜM VIII.--MOBİLYA.

Penelope'nin kanepesi--Keldani mobilyalı ev--Yatak--Leicester Kontu'nun envanterleri--Alessandri'nin devlet dairesi
Saray--Mobilya için Hint nakışları--Kanepe ve
sandalye--Ayak taburesi--Mobilya dikişleri--Masa
örtüsü--Parametre--Kitap kapakları--Morris'in mobilya üzerine 280

BÖLÜM IX.--GİYSİ.

Giyim sanatı--Antik ihtişam--Pers, Yunan ve
Roma--Hint--Homeros--Erken Hristiyan--Şarlman'ın
mantosu ve cübbesi--Giyim nesneleri--İşlemeli giysiler 294

BÖLÜM X.--KİLİSE İŞLEMESİ.

Hristiyan sanatı--Karanlık çağlar--Yunan ve Roma kilise
giyimleri--Kuzey etkisi--Kilise
sanatının sürekliliği--Otoriteler--Anglosakson ortodoks renkleri--Tapınak
örtüleri--Pagan tapınaklarındaki ve Hristiyan
kiliselerindeki asmalar--Rusların örtü kullanımı--Erken Kilise'deki sanat--
Nadir örnekler--İkonoklastlar tarafından yıkım--Erken
iş
işçiler--İmparatoriçe Helena--Charlemagne'nin annesi Bertha--Dalmaticus'u--St. Silvester'in Pluvial'i--Bologna'daki müzenin Pluvial'i--Daroca cape--VIII. Boniface cape--
On ikinci yüzyıl stili--Macaristan'ın St. Stephen'ının pelerini--Kunigunda'nın II. Henry için yaptığı çalışma--Romanesk--
Gotik sanatı mükemmelleştiren hareket, on üçüncü yüzyıl--Opus
Anglicanum--Syon kopuşu--Pul üzerindeki nakış--Düz dikişli
resimler--Flaman işi--Rönesans--Bazı kraliyet
hanımlarının işi--Fransız--İspanyol--Sicilyalı ve Napolili--Alman
işleri--Kutsal sembolizm--Melito'nun "Anahtar"ı--Gizemli
renkler--Tarih öncesi haç--Haçın birçok biçimi--Roes--Krizoklav--Modern
süsleme--Kilise
işlemelerinin ilkeleri ve motifleri--Sunak örtüsü--Reredos--Minber ve okuma masası--Antik
Paschal--Aziz Cuthbert sancağı--Püskül--Kilisenin
Laik armaları--Güney Kensington Müzesi 303

BÖLÜM XI.--İNGİLİZCE İŞLEME.

İngiltere'de sanatın ilk bakışı--İngiltere'de boyama ve dokuma--Erken dönemlerde
-Sezar'ın işgali--Roma
medeniyeti--Anglosakson zamanları ve sanatı--Adhelme'nin
şiiri--İzlanda Sagaları--Thorgunna'nın destanı veya hikayesi--sekizinci yüzyıldaki
İngiliz
çalışmaları--Benediktinler--Durham
işlemeleri--Aelfled--St. Dunstan--Kraliçe Emma'nın
çalışmaları--Poitou'lu William--Bayeux gobleni--Markgate'in
Rahibesi--Papa IV. Adrian'a Hediyeler--Sens'teki Thomas a
Becket'in Cübbeleri--Innocent III. --İngilizlerin
Fetih'ten Reformasyon'a kadar iğne işindeki üstünlüğü--John
El tezgahlarında çelenk--Blode-bendes ve lacs d'amour--Opus
Anglicanum--Kilise tasarımında İngiliz özellikleri--Giyimde lükse karşı cezalar--Sanatın
felaketi olan koruma--Dunstable tabutu--Stoneyhurst kopuşu--Reformasyon'da
güzel eserlerin tahribi--Kıtada çok şey,
eski Katolik evlerimizde çok şey toplanmış--Altın Kumaş Alanı--Mary Tudor'un İspanyol dikişleri--Kraliçe
Elizabeth'in nakışları--Nakışçılar Şirketi'nin
Kuruluşu--Doğu Hindistan Şirketi--Korumacı
sebeplerle Doğu zevkinin
kötülenmesi--İngiltere'deki sanatın
çöküşü--James I.'in
tarzı--Hollanda stili--Yastık dikişleri--Bayan Linwood--
Bayan Moritt--Bayan Delany--Bayan Pawsey--Sonsöz--İğne işi
sanatının canlanması--"Kraliyet Sanat Okulu İğne İşi" 356

EK

I. Charles T. Newton'ın Adak Elbiseleri Üzerine 400

II. Moritzburg Tüy Askıları 401

III. Arachne'nin Hikayesi, Earl Cowper tarafından çevrildi 402

IV. Charlemagne'nin Dalmaçyalısı, Lord Lindsay tarafından 405

V. Onurlu ve Rahip W. Ignatius Clifford Tarafından Çeşitli Ortaçağ Nakışlarına İlişkin Duyurular 407

VI. Syon Cope, Rock'ın Girişi, "Tekstil Kumaşları" 408

VII. Asur Saçakları 412

VIII. Hrothgar'ın Ev Mobilyaları: Beowulf Şiiri 412

IX. Thorgunna, Sir G. Dasent tarafından 413

X. Aelswith'in Soy Ağacı 414

XI. Genel Tüzükler 414

RESİMLER LİSTESİ.

KESİKLER.

Şekil | Sayfa.|
----+-----+
1 | 20 | Mısır zırhı. Wilkinson'ın "Antik Mısırlılar", s.
| | 332.
2 | 25 | Balawat Tabernacle. Temp. Shalmaneser. Britanya
| | Müze.
3 | 30 | Zoomorfik Kelt deseni.
4 | 32 | Kutsal peplos giymiş Pallas Athene. Panathenaic
| | vazo, Britanya Müzesi.
5 | 62 | Dalga deseni.
6 | 63 | Anahtar deseni.
7 | 63 | Metoplar ve triglifler.
8 | 73 | Pers halısı. Mısır sembolik desenleri.
9 | 91 | Gotik ayçiçeği. R. S. A. N.
10 | 98 | Dalga.
11 | 104 | Mısır müttefiki ve düşmanı. Temp. Rameses II. Wilkinson'ın
| | "Antik Mısırlılar," iii. s. 364.
12 | 105 | Asur mazgallı deseni.
13 | 107 | Gotik ağaç türü, Bayeux gobleni.
14 | 111 | Radyal desen.
15 | 111 | Radyal ayçiçeği.
16 | 112 | Kabuk deseni.
17 | 112 | Balkon deseni.
18 | 115 | Kare ve dairenin çeşitli ayarlamaları.
19 | 146 | Pullar.
20 | 195 | İğneler.
21 | 208 | Tüy desenleri. Mısır.
22 | 216 | Uygulama. Mısır. Auberville'in "Tissus."
23 | 217 | Şöminenin işlemeli bordürü. Kırım. "Compte Rendu."
24 | 281 | Babil veya Keldani evi ve mobilyaları.
25 | 311 | İtalyan on beşinci yüzyıl deseni. Kelt tipi.
26 | 377 | Dikenli dört yapraklı yonca.
27 | 380 | Holbein deseni. Örnekleyici.
28 | 388 | Nakışçılar Loncası'nın armaları; Kraliçe Elizabeth tarafından verilmiştir.
29 | 393 | James II'nin taç giyme elbisesinin bir kısmı; eski bir
| | baskıdan.

TABAKLAR.

Tabak|Sayfa.| Ref.|
-----+-----+-----|
| | | BAŞLIK SAYFASI. Penelope tezgahında, onun tarafından azarlanıyor
| | | oğlu Telemakhos. Chiusi'de bulunan vazodan,
| | | Etruria. "Monum. d. Inst. Arch. Rom." ix. Pl. 42.
1 | 22 | 93 | ASSURBANIPAL (Sardanapalus). Ninova'dan heykeller.
| | | British Museum.
2 | 22 | 93 | Kraliyet Babil pelerini parçası. Layard'ın
| | | "Anıtlar" Serisi i. pl. 9.
3 | 29 | | ST. JOHN. Kral Alfred'in Kelt İnciller Kitabı'ndan.
| | | Lambeth Sarayı Kütüphanesi.
4 | 30 | | Aziz Kitabı'nın BİR SAYFASI Cuthbert veya Kitabı
| | | Lindisfarne.
5 | 33 | | Palestrina'dan GÜMÜŞ KÂSE. Clermont Ganneau'nun
| | | "Journal Asiatique, Syro-Egyptien-Phoenicien." adlı eserinden.
6 | 40 | 93 | İMPARATORİÇE THEODORA. Ravenna Mozaiği.
7 | 42 | | İTALYAN İŞLEMESİ, on beşinci yüzyıl. Güney
| | | Kensington Müzesi.
8 | 43 | | İTALYAN ve İSPANYOL orphrey, on altıncı yüzyıl.
9 | 45 | | PLATERESQUE TASARIM. İspanyol örtü, yeşil kadife
| | | ve altın, on altıncı yüzyıl. Goa işi.
10 | 87 | | DALGA DESENİ. 1, 4, 9, 12, 13. Yunan dalga deseni.
| | | 2. Anahtar veya Maeander Yunan dalgası. 3. Yunan kırık dalgası.
| | | 5, 6, 7. Mısır'ın pürüzsüz ve dalgalı dalga deseni.
| | | 8. Ortaçağ dalgası. 10, 11, 14. Babil ve
| | | Keldani. 15. Pers veya Yunan, cam kaseden,
| | | British Museum. 16. İngiliz dalgası (veya bulut). Durham
| | | nakışlar, onuncu yüzyıl.
11 | 88 | | BASİT DESENLER. 1. Pers. 2. Lotus bordürü,
| | | Mısır.
12 | 90 | | LOTUS BORDÜRLERİ. 1. Hint. 2, 3. Mısır. 4, 5, Yunan.
| | | 6. Hint.
13 | 95 | 102 | HİNT LOTUSU. 1. Asur papatyasıyla. 2. Lotus. 3.
| | | yumurta ve dil veya Vignola'dan Vitruvius parşömeni.
| | | "Regole di Ordine di Architettura."
14 | 91 | | AYÇİÇEĞİ DESENİ. R. S. A. N. On dokuzuncu yüzyıl.
15 | 92 | | Kells Kitabı'nın BİR SAYFASININ BİR KISMI. Dublin
| | | Üniversite Kütüphanesi.
16 | 93 | 114 | DEMETER. Yunan uydurma vazo. British Museum.
17 | 93 | 217 | 1. YUNAN İŞLEMESİ, M.Ö. 300 Yedi Kardeşin mezarından, Kırım.
| | | 2. MISIR boyalı veya işlenmiş keten. Koni,
| | | boncuk, papatya, dalga. Lotus-su altı desenleri bu parçada
| | | temsil edilmiştir.
18 | 93 | | MISIR İğneyle tamamlanmış goblen dokuma.
| | | British Museum.
19 | 97 | 114 | MISIR anahtar desenleri. Wilkinson'ın "Antik
| | | Mısırlılar", s. 125.
20 | 99 | 101 | HAYAT AĞAÇLARI. 1, 2, 3. Asur. 4. Sicilya ipeği.
| | | 5. Ortaçağ. Birdwood'un "Hint Sanatları."
21 | 101 | | HAYAT AĞAÇLARI. 1. Miken kapısının üzerindeki heykel.
| | | 2. Sicilya ipekleri; Pers tipi.
22 | 101 | | LOTUS HAYAT AĞACI İLE BİRLEŞTİ. 1. Bölünmüş Çin
| | | Lotus. 2. Bölünmüş Fars Lotus,
| | | Benozzo Gozzoli'nin frizinden. Ricardi Sarayı, Floransa. 3. Çiçek
| | | yaprağı. Güney İtalya'daki mezardan Yunan cam kase.
| | | 23 | 101 | | HAYAT AĞAÇLARI. Sicilya ipekleri. Auberville. 1, 2, 3,
| | | 4, 5, 10. Fars tipi. 6, 7, 8, 9, 11. Hint tipi.
24 | 101 | | HAYAT AĞACI asmaya dönüştürüldü. Prensliklerden
| | | modern desen.
25 | 103 | | TİPİK HAÇLAR. 1. Gamalı haç ateş çubuğu haçı. 2.
| | | Yunan vazosundan, British Museum, M.Ö. 765. 3.
| | | Sakti ırkının mezhep işareti. Hindistan. 4. Budistlerin ve Jainilerin mezhep işareti. 5. Erken Rodos'ta
| | | çanak çömlek. 6. Mısır tarih öncesi haçı. 7. Tau
| | | haç. 8. Mısır ve Ninova toprak işareti.
| | | 9. Mısır ve Ninova toprak işareti. 10. Clavus,
| | | "çivi" veya "düğme" veya güneş haçı. 11, 12, 13.
| | | İskandinav güneş ve ay haçları. 14, 15, 16.
| | | Kelt. 17. Chrysoclavus. 18, 19. Stauracin
| | | desenler. 20. Norveç. 21. Rün. 22. Haç
| | | Güneş Tapınağı, Palenque. 23. İskoç Kelt
| | | haç. 24. Iona'daki Haç. 25, 26. Rün ve
| | | İskandinav haçları. 27. Charlemagne'ın Dalmaçyalı
| | | üzerine işlenmiş haç. 28. Almanya İmparatoru II. Henry'nin
| | | mantosundan.
26 | 103 | | TARİH ÖNCESİ HAÇLAR. 1. Yunan. Pallas, swastika ile işlenmiş
| | | tunik. 2. Yunan. Ajax, Aşil ile zar
| | | oynuyor. Swastika ve diğer tarih öncesi desenlerle
| | | işlenmiş pelerin. Kurgu
| | | vazo, Vatikan Müzesi.
27 | 105 | | ASUR HALI taşa oyulmuş, British Museum.
28 | 107 | | GOTİK. 1. Eski MS 2, 3. Eski
| | | İngiliz fayanslarından elbise desenleri.
29 | 109 | | BULUT DESENLERİ. 1, 2, 3, 7. Japonca. 5, 8, 9.
| | | Ortaçağ. 4. Çince. 6. Richard II.'nin rozeti.
30 | 109 | | HİNT-ÇİN ÖRTÜSÜ. Hatfield. Oliver Cromwell'e ait olduğu
| | | olduğu varsayılıyor.
31 | 109 | | FUNDATA DESENLERİ. 1. Fenike gümüş kasesi üzerinde.
| | | ("L'Imagerie Phenicienne") 2, 3. Mısır'daki
| | | Essiout'taki mezardan. Wilkinson'ın "Antik Mısırlılar"ı,
| | | ii. s. 125. MÖ 1600
32 | 124 | | İpek, altın ve incilerden yapılmış SINIRIN BİR KISMI. Bohemya'lı Charles IV.'ün eşi
| | | Blanche tarafından işlenmiştir. Bock'un
| | | "Lit. Gew." ii. s. 246.
33 | 147 | | Gentil Bellini'nin Muhammed portresinden İŞLENMİŞ PENCERE SÜSÜ, II.; Sir Henry'ye aittir
| | | Layard.
34 | 153 | 110 | KLASİK İPEKLER. 1. Yunan. 2. Roma.
35 | 163 | | DURHAM RESİMLERİ. Pers tipi ipek dokuma.
36 | 164 | | DURHAM RESİMLERİ. Norman ve Pers tipleri karışık.
37 | 164 | | DURHAM RESİMLERİ. Greko-Mısır tipi.
38 | 164 | | işlemeli ve püsküllü yelkenleri,
| | | ve yüzen eşarpları olan MISIR TEKNESİ. Wilkinson'ın "Antik
| | | Mısırlılar," iii. s. 211.
39 | 200 | | Şövalyenin heykel mezarından beyaz işleme,
| | | on beşinci yüzyıl. Ara Coeli, Roma.
40 | 201 | | Tören pelerini, İspanyol işi, geçici. VIII. Henry,
| | | Lord Arundel of Wardour'a ait.
41 | 204 | | OPUS PULVINARIUM. Sayılı dikişler. 1. İtalyan. 2.
| | | İskandinav. 3. Eski Mısır. Torino Müzesi.
42 | 206 | | İTALYAN MOZAİK DİKİŞİ işi, on altıncı yüzyıl.
| | | Alford Evi.
43 | 214 | | JAPON OPUS PLUMARIUM. Beyaz ipek.
44 | 216 | 25 | OPUS CONSUTUM. Bir Mısır kraliçesinin cenaze çadırı.
45 | 219 | 123 | OPUS CONSUTUM. "Kakma" ve "kakma". İtalyan,
| | | on yedinci yüzyıl.
46 | 235 | | MISIR GOBELİNLERİ iğneyle tamamlandı.
47 | 236 | | RHEIMS KATEDRALİ DOKUMASI. Bakire, çerçeveye bir "basse-lisse" dokuyor ve
| | | işliyor.
48 | 243 | | CHARLES THE BOLD'UN ÇADIRI, şu anda Berne'deki müzede bulunan Grandson'da çekilmiştir.
| | | | Altın Post'un rozetidir.
49 | 252 | | Lord Salisbury'ye ait İNGİLİZ DOKUMASI,
| | | Hatfield House, geçici. VIII. Henry.
50 | 294 | | On beşinci yüzyıl İTALYAN ŞÖVALYESİ, fetih için
| | | silahlanmış. Gentile da Fabriano. Academia, Floransa. 51 | 309 | | ST. MARK. Anglosakson İncil Kitabı. York
| | | Minster Kütüphanesi.
52 | 312 | | KLASİK DESEN Hristiyan sanatına uyarlanmıştır.
53 | 318 | | CHARLEMAGNE'S DALMATIC. Vatikan Hazinesi.
54 | 318 | | CHARLEMAGNE'S DALMATIC. Vatikan Hazinesi.
55 | 318 | | CHARLEMAGNE'S DALMATIC'İNİN BİR KISMI. Yarım boy.
56 | 319 | | ST. SILVESTER'S PLUVIAL. St. John Hazinesi
| | | Lateran, Roma. Opus Anglicanum, onüçüncü
| | | yüzyıl. 57 | 319 | | ST. SILVESTER'İN PLUVIAL'İNİN BİR KISMI, durumunu
| | | gösteriyor.
58 | 319 | | BOLOGNA COPE. Museo del Municipio. Opus Anglicanum.
59 | 319 | | DAROCA COPE. Madrid'deki Arkeoloji Müzesi. Opus
| | | Anglicanum.
60 | 319 | | VIII. BONIFACE'İN COPE'U, doğduğu yer olan Anagni'den;
| | | şimdi Vatikan Hazinesi'nde; on ikinci yüzyıl.
61 | 319 | | İtalya, Anagni'deki SUNAK ÖNÜ. İtalyan eseri,
| | | on dördüncü yüzyıl.
62 | 320 | | Onuncu yüzyıla ait WORCESTER ESERLERİ. 1. Walter de Cantilupe'nin
| | | mezarından. 2. İsviçre'deki Aix'ten.
| | | Aynı tip.
63 | 320 | | 1. THOMAS A BECKET'İN MİTRESİ. 2. On iki
| | | yapraklı haç, "ulusların iyileşmesi için." Taç giyme töreni
| | | Rheims'deki giysiler.
64 | 321 | | ANGLO-SAKSON İŞİ, mor ve altın,
| | | William de Blois, Worcester'ın mezarından. 1236'da Piskopos olarak öldü.
65 | 321 | | MACARİSTAN'IN AZİZ STEPHEN'IN MANTOSUNUN BİR KISMI, Kraliçesi Gisela tarafından
| | | işlenmiştir. Bock'un "Kleinodien"inden.
66 | 322 | | İmparatoriçesi Kunigunda tarafından
| | | işlenen II. HENRY'NİN MANTOSUNUN BİR KISMI. Bock'un "Kleinodien"inden.
67 | 325 | | SYON BAŞI. South Kensington Müzesi.
68 | 329 | | Pollaiolo tarafından tasarlanan İTALYAN İŞLEMELERİ;
| | | Paolo da Verona tarafından işlendi. On altıncı yüzyıl.
69 | 330 | | İSPANYOL SUNAĞI ÖNÜ. KASTİLYA'NIN KOLLARI
| | | incilerle altınla işlendi. Ashridge. Plateresk tarzı,
| | | on yedinci yüzyıl.
70 | 337 | 113 | KONSOLOSLUK FİLDİŞİLERİ. İki diptik. 1. Zürih,
| | | Wasser-Kirche. Konsül Areobindus'a yazılmıştır,
| | | M.S. 434. 2. Halberstadt'ta. Tarih yok. Bock'un
| | | "Lit. Gew."
71 | 363 | | AELFLED'İN ORPHREY'İ, onun imzasıyla. Durham Katedrali
| | | Kütüphane.
72 | 363 | | ST. GREGORY VE ST. JOHN (PEYGAMBER), Aelfled'in
| | | orphrey. Durham. İngiliz eseri, onuncu yüzyıl.
73 | 365 | | ST. DUNSTAN hayranlık içinde, kendisi tarafından çizilmiş. Bodleian
| | | Oxford Kütüphanesi. Onuncu yüzyıl.
74 | 369 | | KÜÇÜK PARSEME DESENLERİ, Strutt'un "1100'den 1530'a İngilizlerin Kraliyet ve
| | | Kilise Antikaları"ndan.
75 | 369 | | İNGİLİZCE nakış DESENLERİ. 1. Yorkshire, Hornby Kilisesi'nde
| | | bir paravanın paneli. 2. York, St. Michael Kilisesi'nde boyalı
| | | bir penceredeki elbise. 3. Towneley Copes'un
| | | kumaşından dokunmuş.
76 | 375 | | OPUS ANGLICANUM, on ikinci yüzyıl. British Museum.
77 | 376 | | Kilise nakışları için TİPİK İNGİLİZ SÜSLERİ, on ikinci yüzyıl.
78 | 377 | | DUNSTABLE PALL. Geçici Henry VII.
79 | 378 | | VINTNERS' COMPANY PALL. Henry VII.
80 | 378 | | VII. HENRY'S COPE, Stoneyhurst'ten; mezarının heykeltıraşı olan
| | | Torrigiano tarafından tasarlanmıştır.
81 | 382 | | İSPANYOL İŞİ. Geçici Henry VIII.
82 | 383 | | İNGİLİZCE "İSPANYOL İŞİ." Geçici Henry VIII.
83 | 389 | | YASTIK ÖRTÜSÜ, Hatfield House. Geçici Elizabeth.
84 | 390 | | DOĞU "AĞAÇ VE HAYVAN" DESENİ. Cockayne-Hatley.
| | | Geçici James I.
85 | 391 | | İNGİLİZCE İNCE İŞ. Hint tasarımı. Geçici James I.

SANAT OLARAK İĞNE İŞİ.

GİRİŞ.

Sanat Bilimi kitabı henüz yazılmadı. Sanata
Yaşam Çiçeği ve aynı zamanda Teselli Edici denildi; güçlü ve parlak olanların
varlığını süsledi, dünyanın üzgün ve yalnız olanlarını
korudu ve rahatlattı. Fakat daha ziyade, çeşitli çiçeklerle kaplı, çok sayıda
meyve veren geniş yayılmış bir ağaca benziyor. Dünyaya gölge veren, tazeleyen ve sağlıklı meyveler veren her dalın tarihini ve gelecekteki olasılıklarını belirtmek, bir ustanın eline ve bir altın kaleme layık bir görev olurdu. Ancak henüz kısmen ekili olan araştırma alanındaki daha az hırslı işçiler, dikkatlice küçük bir yığın kesinleşmiş gerçek toplayarak yardımcı olabilirler; ve gerçekten de, her birinin geçerken çakıl taşını, kaydedilmiş insan bilgisinin yavaşça biriken yığınına eklemesi görevidir. Birisi şöyle demiştir: "Evini küçük gerçek tuğlalarından inşa et, ve yakında bir gerçekler topluluğunun yaşadığını göreceksin; ve o gerçek, diğer gerçekler evleriyle birleşecek ve zamanla iyi düzenlenmiş, kozmik bir şehir yükselecek."

Çakılım henüz cilalanmadı. Ne bir elmas ne de bir yakut, ama
içinde birkaç altın ışık çizgisi olduğunu düşünüyorum, bunları
insan sanat bilgisinin evindeki günlük biriken hazineye eklemeye cesaret edebilirim.

Bu cildi yazmamdaki amacım, İngiliz sanat kütüphanesindeki
boş bir alanı doldurmak.

Şiirsel düşüncenin büyük temsilcileri - şiir, heykel, resim ve
mimari - uzun zamandır iyi yorumlanmış ve takdir edilmiştir.
Erkekler ve kadınlar bu büyük konular hakkında çok ve iyi şeyler yazmışlardır ve
uzun vadede daha fazlasını umabiliriz. İkincil veya daha küçük sanatlar
şimdiye kadar bizim tarafımızdan ihmal edilmiştir - ya sadece sanat eğitiminin yardımcı olabileceği zanaatlar olarak ele alınmıştır ya da
ilkel sanatların doğal veya daha aşağı sonucu olarak, özel yasalara ve tarihe sahip olma iddiası olmadan. Ve yine de, Musa yazdığında ve Homeros söylediğinde,
iğne işi yeni bir şey değildi. Zaten efsanevi ve geleneksel gelenek tarafından en yüksek kullanımlara adanmıştı. Tanrılar bile
hizmetleriyle onurlandırıldılar ve kahramanca eylemleri ve ulusal zaferleri kaydetmede yazılı tarihten önce geldi.

Fildişi oymacılığının heykel, aydınlatılmış
el yazmalarının ve renkli cam pencerelerin ise resim olduğu söylenebilir. Ancak metal işçiliği için, ister demir ister altın olsun, ayrı bir yer ayrılmalıdır; ve aynı ayrıcalıklar
işleme ve metalurjiye de aittir. Tüm sanatların
zorunlu olarak kendi yasaları ve kuralları olmalıdır, bunlar uygulama güzelliğini ve özel tasarım biçimlerini garanti eder; bu son ikisi, malzemelerinin doğası ve bunları işleme biçimleri nedeniyle,
resim, mimari veya heykel ile herhangi bir bağlantıdan bağımsız olarak incelenmelidir.

Yine de, doğanın birliği kabul edilmiş bir gerçekse[3], o zaman sanatın birliğinin kabulü de bunu takip etmelidir. Sanat, doğal olayların, ulusal zevke, ihtiyaçlara ve takdir gücüne uyarlanmış belirli biçimlerde ve belirli malzemelerle özümseyip yeniden üretebilen bireysel zihinler tarafından seçilmesi olarak düşünülmelidir. İnsan malzemeler üretemiyorsa, kombinasyonlar icat edebilir; ve bu Sanattır.

Oran, renk ve ses, belirli matematiksel ölçümlere ve ritmik titreşimlere bağlıysa, bu unsurlar arasında gerçek ve elle tutulur bir ilişki olmalıdır, ancak farklı sonuçlar elde etmek için uygulanırlar. Müzikte, tüm sanatlarda olduğu gibi, uyum ilk düşüncedir veya olmalıdır. Deneyle, gamımızdaki bir notanın, bir cam levha üzerindeki kumla dokunarak geometrik şekiller oluşturabildiğini gördük, burada form uyumun gücüne itaat eder. Peki uyum nedir?

Benzer şekilde, müzik sanatından da yola çıkarak tartışabiliriz. Biz, konuyla ilgili tüm önceki bilginin ötesinde, bir bilim olarak müzik bilgisini edindiğimize inananlar, Avrupa'da yalnızca kendi müzik gamlarımızın tadını çıkarabildik; oysa Doğu'nun her yerinde, insan kulağının kabul ettiği gamlar çok çeşitlidir ve duyularımıza göre uyum olan şeyden uzaklaşıyor gibi görünmektedir. Bu Doğu müzikleri ya Doğu kulağına uyarlanmıştır ya da kulak, temas ettiği uyum biçimlerini ve yasalarını takdir edecek şekilde uyarlanmıştır. Farklı dekoratif sanat biçimlerini incelerken aynı sorular aklımıza gelir; ve bunları yönetmesi gereken yasaların, sınırlı insan kapasitelerimiz ve deneyimimizle şimdiye kadar
anlayabildiğimizden belki de sonsuz derecede daha büyük ve daha geniş olduğu sürekli olarak hatırlatılır.

"Ars longa--vita brevis" o kadar sık ​​söylenmiştir ki, bir atasözünden
bir klişe haline gelmiştir; ancak sanat üzerine yazanların
nakaratında olmaya devam etmelidir. Konu o kadar uzun ve sonuçları o kadar karmaşıktır ki, hepsini tek bir kategoriye dahil etmek zordur.

Buradaki en uzak amacım, gözlerimi sağa veya sola çevirmeden, iğne işi sanatını başlangıcına kadar takip etmektir, ancak
burada ve orada iğne işi tarihine çok yakın olan mimari, heykel ve resmin rastgele bakışlarıyla kendimi neredeyse karşı konulamaz bir şekilde bir kenara çekilmiş hissetmekten kendimi alamıyorum.

Birbirlerini gözle görülür şekilde etkiledikleri durumlar hariç, daha büyük sanatlarla ilgilenmekten kaçınıyorum ve bunları her özel daldaki bilginlerin çalışmasına bırakıyorum.

Ancak tüm sanatlar yansıyan ışıklar saçar ve bizden önce gelen yazarların izinden giderek, genellikle kabul ettiğimiz ve memnuniyetle kullandığımız değerli ipuçları yakalarız.

Bazı yazarlar, iğne işine yerel bir yerleşim yeri ve kalıcı bir yer vermenin kendilerine düştüğünü düşünmüşlerdir ve bunu resmin bir dalı olarak görmüşlerdir. Ancak bu sınıflandırmayı onaylayamam.
Semper'e göre, aslında, diğerlerinin iddia ettiği gibi, her ikisinin veya ikisinin de çocuğu olmak yerine, heykel ve resmin ana sanatıdır.[4] Gerçekten de, her biri kendi orijinal kaynaklarıyla haklı olarak övünebilecek kadar farklı işlevleri vardır. Resim, renk sanatıdır; heykel, biçim sanatıdır; nakış, giyim biçimleri sanatıdır. Hepsi o kadar eskidir ki, başlangıçlarını ve tarihlerini belirlemeye çalışırken Birinin diğerine göre önceliğini belirlemek zordur. Gözlemlerimize yeni gerçekler geldikçe karşılaştırabilir, ayırt edebilir ve tekrar görüşlerimizi değiştirebiliriz.

İğne işi sanatı uzun zaman önce zirveye ulaştı ve artık çok eski. Tarih ve solmuş paçavralar, Klasik, Oryantal ve erken Ortaçağ günlerindeki muhteşem ihtişamının tek tanıklarıdır. Görünüşe göre icat edilecek yeni bir şey kalmamıştır. Geçmiş stillerin kopyaları ve model olarak sakladığımız ve değer verdiğimiz hurdalardan seçmeler, şu anda övünebileceğimiz tek şeydir.

Dr. Rock, günümüzde çok az kişinin, her biri kendi zanaatında günün en iyi ve en yetenekli erkek ve kadınların elleriyle tasarlanmış ve işlenmiş olan nakışlara harcanan emek, para ve zaman hakkında en ufak bir fikre sahip olduğunu gerçekten söylüyor.

Zaman çok kısa, hayatımız çok yoğun, sonuçta sadece bir sanat lüksü olan şeyin abartısına izin vermek için boş zamanımız yok - eskiden olduğu gibi artık bir uygarlaştırıcı değil, sadece kültürümüzün bir çiçek açması. Nakış artık özünde bir "dekorasyon" ve daha fazlası değil. Hayal gücünden ziyade gözün güzellik duygusuna hitap etmeyi amaçlıyor. İğne işi tasarımcısı bir sanatçı olmalı, ancak şair olması gerekmez. Bu sanatı tamamen göz ardı edebilirsiniz ve yine de görkemli bir şekilde giyinmeniz ve yerleşmeniz gerekir. Yine de tarihsel kanıt olarak dikkatli bir şekilde incelenmeye değer ve geçmişte olduğu gibi şimdi ve gelecekte de bir _sanat_ olabilir, sadece bir _zanaat_ değil.

Çünkü tarihin büyük ağı çeşitli renklerde birçok iplikten oluşur ve çözgü ve atkı sıklıkla değiştirilir, ancak süreklilik asla bozulmayacak şekilde birbirine bağlı ve düğümlüdür. Zaman, bu
web'de geçmişin resmini çizdi--bazen belli belirsiz,
bazen de silinmez tonlarla ve belirgin biçimlerle. Şiirle; mimari ve süslemeleriyle; milliyetleri temsil eden ve ayıran kıyafetlerle; farklı cenaze törenleri gibi geleneklerle; hatta gözleri boyama gibi detaylarla; ayrıca Doğu'dan Avrupa'ya ardışık olarak akan kabilelerin yasalarının gelenek ve sonuçlarıyla; Manu Kanunları ve tuğla veya kil üzerine yazılmış Babil Kanunları gibi, kendi topraklarında değişmez bir şekilde sabit kalan kurumlarla; veya bunların bize aktarıldığı kelimeler, biçimleri ve harfleriyle; tüm bunlardan insanlık tarihi yeniden inşa ediliyor.

İnsanların hafızalarında mitlere dönüşen kadim kayıtlara dair her tanıklık ne kadar değerlidir. Her küçük gerçek, genel şüphe sisi içinde, ne kadar sevinçle bir dönüm noktası olarak selamlanıyor!

Şimdi nakış, her zaman için bir dönüm noktası kaynağı olduğuyla övünebilir.

İlk başlangıcı için bir tarih belirlemeye kalkışmadan, okuyucunun zihnine kazımak istediğim şey, iğne işi sanatının uzun süreli sürekliliğidir. Antiklik duygusu saygı uyandırır ve iğne için fırçaya verilebilecek olandan daha eski ve daha görkemli bir çağ talep ediyorum. Zamanın büyük sarkaçı, heykel, resim ve mimarideki sanatı, Mykene'deki beşiğinden, Perikles'in günlerinde Atina'daki tahtına ve sonra tekrar çürüyen Roma'nın en aşağılık yoksulluğuna sallarken, sürekli olarak Doğu ilhamıyla tazelenen iğne işi, daha büyük kız kardeşi sanatlar kadar yükseğe ulaşmamış olmasına rağmen, hiç bu kadar düşmemiştir. Mısırlıların, Çinlilerin, Asurluların ve Keldanilerin çeşitli malzemelerden yapılmış kumaşları ve kumaşları, insan ırkının en eski kayıtlarında isimlendirilmiştir. Bu süslemelerin ne kadarının dokumaya, ne kadarının iğneyle işlemeye dayandığı her durumda tartışılabilir. Babil tezgahlarının ürünlerine Yeşu Kitabı'nda değinilir. Güzellikleri, Eriha düştüğünde Achan'ı onları kurtarmaya ikna etti;[5] ve
Hezekiel, Canneh, Haran ve Eden'in işlemelerinden ve ayrıca mor ve mavi kumaşlarından ve çeşitli renklerdeki giysi sandıklarından bahseder[6].

Tüm bu kumaşlar ticari mal olarak adlandırılır ve Fenikeliler, Doğu'nun büyük gemi sahipleri ve tüccarları tarafından deniz kıyısına ve oradan da antik dünyaya taşınırdı.

Hint iğne işi ve tasarımı 4000 yıllıktır; ve Mısır sanatının uzun perspektifi, bizi daha da geriye, sınırsız dönemlere götürürken, o kadar yavaş değiştiğini gösterir ki, sanki başlangıçtan beri neredeyse hareketsizmiş gibi hissederiz.

Çinliler tarihlerinin ömrü olarak 5000 yıl iddia ederler; ancak, şimdi öne sürüldüğü gibi, medeniyetleri Akad veya Proto-Babil ise,
harika sanatsal ve bilimsel bilgileri, o zamandan beri fosilleşmiş olarak kaldığı
harika taş, sessizlik ve yasa duvarının[7] arkasında gizlenmiş ve korunmuş büyük dağılmanın parçaları olabilir. İnsan, Çinlilerin tekstil ürünlerinin mükemmelliğine, harikulade nakışlarına,
ve sanatlarında büyümede çok az değişiklik gösteren, evrimin neredeyse hiç belirtisi olmayan, kendine özgü yapı ve tasarım biçimlerine hayran olmamak elde değil. Ve bu Akad kültürünün (eğer öyleyse) tufan öncesi gelenekten yansıdığını tahmin edebiliriz.

Doğu sanatının arkeolojisi çok ilginçtir.
Doğu'nun ardışık medeniyetlerinin muazzam ihtişamlarını, Asya kıtasının tamamının kadim zenginliğini ve bereketini hayranlıkla seyrediyoruz; imparatorluk ve ticaret için deha; savaşlar ve fetihlerle kontrol edilemeyen yaratıcı güç; yükselip düşen, arkalarında devasa eserler ve Çin, Asur, Hindistan ve Pers imparatorluklarındaki muhteşem lüks kayıtları bırakan büyük hanedanlar; bunların kalıntıları son yıllarda kazılmış, deşifre edilmiş ve miras aldığımız ve sadece kısmen inandığımız tarihi metinlerle
karşılaştırılmıştır. Ve tarihin bu yeni yönlerini incelerken, güneşin doğuşunun çöl kumlarının veya boş şehirlerin höyüklerinin üzerinden parlayarak bize geldiğini düşünerek üzülüyoruz, aslan ve çakalın "ilkel mülkiyetlerini yeniden iddia ettiği" veya Avrupalı ​​ve Tatarların Batı'dan ve Doğu'dan egemenlik haklarını tartıştığı yerlerde. Aşırı nüfuslu krallıkların tüm kabileleri doğuya Asya sınırlarına, güneye Hindistan'a ve batıya Avrupa'ya gönderdiği o büyük günlere geri dönüp baktığımızda, şaşkınlığa uğruyoruz ve Yahudileri, bir vaat ve umutla, kaynayan uluslar arasında, uzun zaman boyunca İbrahim'den Süleyman'a götüren ve yine o Doğulu görünümlü adamların eline, büyük zenginlikleri aracılığıyla insanlığın kaderini şekillendirmede çok fazla güç veren o kudretli Gücün önünde saygıyla eğiliyoruz. Musa, İbrani halkına ödünç vermelerini ve asla ödünç almamalarını emretti. Onlar, sanat dışında onun emrine itaat ettiler; buna hiçbir şey ödünç vermediler veya vermediler. Ulusal bir Yahudi sanatı yoktur. Sadece müzik için sanatsal deha gösterirler ve bu da Avrupa'ya özgüdür, Doğu'ya özgü değildir. Sezgisel dekoratif sanatlarının eksikliğini göstermek için, sadece ilk, ikinci ve üçüncü Tapınak binalarının mimarisine bakmak yeterlidir; bu yapılar, erken Keldani tipinde Babil ve Sami etkilerini yansıtıyordu. Musa'dan Josephus'a kadar farklı yazarlar tarafından bahsedilen nakışların her zaman Babil veya daha sonra Pers ilhamı aldığı anlaşılıyor. Sanatsal dehanın bu eksikliği, tüm sanatın yayıldığı Doğu merkezinden gelen bir halkta çok dikkat çekicidir. Antik nakışlardan geriye çok azının kalmasının nedeni açıktır. Yünlü kumaşlar ve iplikler çabuk bozulur -güve ve pas onları bozar- ve geriye kalan çok az sayıdaki eski parça, mezarların içindekilerin toza dönüşmesini engelleyen mumyalama işlemiyle korunmuştur.

Daha modern nakışlara gelince, sanatın modası geçtiği için minnettar olmalıyız; aksi takdirde dünya eski püskü paçavralarla
dolup giderdi. İnsan doğası "eski moda" olanlardan hoşlanmama eğilimindedir -yani son neslin modası. Annelerimizin
çalıştığı veya giydiği şeyler, şefkatli duyguların nesnesidir ve yalnızca en iyi örnekler korunur. Büyükbabalarımıza ve büyükannelerimize ait olan şeyler rokokoya geri çekilmiştir; ve birkaç nesil daha bizi antikaya geri götürür, bunlardan çok azı aşınma ve yıpranma, dikkatsizlik ve hırsızlıktan
kurtulmuştur, bu yüzden onları meraklı ve değerli olarak saklayıp saklarız. En uygun olanın hayatta kalmasına ilişkin genel yasanın en dikkat çekici olanı koruduğunu umabiliriz.

Bazı eserler, onları yapan eller,
veya bağışlayanlar veya bağışlandıkları amaç tarafından kutsanmıştır ve çoğunlukla kiliselerde veya ulusal müzelerde muhafaza edilmektedir.
Bunların arasında kraliyet ve asil hanımlar tarafından yapılmış giysiler ve sunak süslemeleri; Kraliçeler ve İmparatoriçeler tarafından verilen taç giyme törenleri giysileri,
örneğin Prag ve Bamberg'deki Kraliçe Gisela ve İmparatoriçe Kunigunda'nınki ve Vatikan'daki Şarlman'ın Dalmaçya'sı, kilise nakışları bölümünde anlatılmıştır. Heykeltıraşlı figürler,
işlenmiş desenler konusunda bize yardımcı olur; çünkü atalarımız genellikle vücudun gömüldüğü giysilerin desenlerini veya en azından adamın hayatı boyunca giydiği desenleri bronz veya taştan kopyalamışlardır. Bunlardan,
Worcester'daki Kral John anıtı ve
Canterbury'deki Kara Prens'in
surcoat'u dikkate değer örneklerdir.[8]

İlerleyen bölümler, farklı dikişlerin tarihinin taslaklarını ve bize kalan
en iyi dikiş ve stil örneklerini içerecektir; ve her ikisinden de tasarım ve el sanatlarında rehberlik için en iyi önerileri çıkarmaya çalışacağım.

Nakış, doğası gereği esasen kadının sanatıdır.[9] Hareketsiz bir yaşam, çalışkanlık ve sabır gerektirir. Kendisi için bir oda gerektirmez ve işçi iki dikiş arasında herhangi bir anda başka görevlere çağrıldığında oradan ayrılabilir. Rahibe manastırları karanlık ve orta çağların en iyi işlerini üretti; ve onların öğretileri saraylarda ve kalelerde, ister asil, ister soylu, ister nazik olsun genç kızların nakışta bir başarı ve bir ev görevi olarak eğitildiği çalışma odalarını başlattı.

Ev nakışının tarihi, estetik kültürün insanileştirici etkisinde önemli bir faktör olarak görülmelidir.

Evin kadını, geleneğin kendisine bahşettiği araçla bu uygarlaştırıcı etkideki rolünü yerine getirmek için her zaman güçlü olmuştur.
Antik Doğu'daki her erkek hayatına çadırda veya annesinin ve hizmetçilerinin elleriyle süslenmiş sarayda başladı ve
evi karısı, kız kardeşleri ve onların köleleri tarafından güzelleştirildi. Orada, tıpkı ortaçağ evlerinde olduğu gibi, ahlak ve din dersleri, asil işlerin sevgisi ve şöhreti, daha doğrudan öğretimi küçümseyecek genç adamların zihnine iğnenin boyanmasıyla öğretilirdi; ve kadınlar ozanların söylediğini dokurken çocuklar da etkiyi hissederlerdi.

Ne yazık ki! Onuncu ve on birinci yüzyıllardan önce tarihini bildiğimiz çok az sayıda nakış örneğimiz var.[10] Yine de Eski Ahit kitaplarının ve Truva kuşatmasının şarkısının olduğu günlerden günümüze kadar, evin kadını sadece kendisini ve sevgili efendisini değil, duvarları, koltukları, yatağı ve masaları da güzel eserleriyle süslemiştir.

Homeros'un kadınlarının hepsi iğneyle çalışan sanatçılardı. Venüs Helen'i arıyordu,--

"Form ve yüz olarak güzel Laodike gibi,
Priamos'un kraliyet soyunun en güzel perisi,
Burada sarayda tezgahında buldu:
Kendi hüzünlü hikayesini taçlandıran altın ağ.
Kendisi ödül olan Truva savaşlarını ördü,
Ve ölümcül gözlerinin korkunç zaferi."[11]

Bu, asılmak için tasarlanmış olmalı.

Hecuba'nın gardırobu şöyle anlatılıyor:--

"Frigya kraliçesi zengin gardırobuna gitti,
Hazine kokularının pahalı bir koku yaydığı yere;
Orada sıradan bir sanat eseri olmayan giysiler vardı,
Sidonlu hizmetçiler her yeri işledi.
Burada, kraliçe dikkatli gözlerle dönerken
Çeşitli dokular ve çeşitli boyalar
Uzaklarda üstün parlayan bir ağ seçti,
Ve sabah yıldızı gibi parıldadı."[12]

Orta Çağ kadınları tezgahta ve çerçevede harikaydı. On üçüncü yüzyıla ait Kleine Heldenbuch'tan, Rock şu dizeleri aktarır:--

"Bana ipekten bir çerçeveye nakış işlemeyi kim öğretti,
Ve ormanın ve kırın vahşi ve evcil hayvanlarını
çizmeyi ve tasarlamayı?
Ayrıca düz yüzeylere resim yapmayı;
Etrafına altın bordürler yerleştirmeyi - dar ve geniş -
Geyikler ve dişi geyiklerle, gerçekçi."

Gudrun, Homeros'un kadınları gibi, tarihi - Siegfried'in atalarının tarihini - işledi.

Ancak Orta Çağ'da nakışçılar hırslı sanatçılardı.

Roland'ın eylemleri ve Truva kuşatması, hepsi romantik ve klasik
bilgiler, iğne için konu sağladı.

Shakespeare zarif dokumacı ve nakışçının güzel bir resmini çizer:--

* * * "Marina ile birlikte:--
İpeği dokurken,
Uzun, küçük, süt gibi beyaz parmaklarıyla;
Ya da keskin iğne yarasıyla,
Daha çok ses çıkaran
Kambriyi,
Onu inciterek...
Derin katipleri susturur; ve iğnesiyle
Doğanın kendi şeklini, tomurcuk, kuş, dal veya meyveyi oluşturur,
Hatta sanatı bile doğal güllerle kardeştir."[13]

Bu Girişi kapatmadan önce, "Yüksek Sanat" ifadesinin kötüye kullanılmasına karşı çıkma fırsatını değerlendireceğim.
Genellikle
en düşük ve en zayıf olanlar tarafından sahiplenilir. Hiçbir şekilde orijinalinde dikkat çekici olmayan, ancak ucuza kopyalanmış ve tuhaf ve kasvetli bir kreton veya kötü işlenmiş bir desenle kaplanmış, tasarımı ne yeni ne de sanatsal olan eski bir sandalye veya masa tasarımı, döşemeci tarafından "Yüksek Sanat mobilyalarına" ait olarak tanıtılır. Bu sıfat, bir zamanlar "moda" ve "zarif" olanın yerini almıştır. Halılardan kurtulmak ve kilimleri yere sermek, aile portreleri yerine tabak sıraları asmak da "yüksek sanattır." Aynı şekilde, perdeleri asmak yerine, tüm kıvrımları çapraz şekilde çekilmiş, omuzlara yığılmış elbiseler. Bu terim, resim, heykel ve mimari gibi büyük sanatlardan bahsederken asla kullanılmaz. Aslında, sadece dolap yapımcısının, döşemecinin ve şapkacının argo ifadesidir.

Gerçek Sanatın tamamı gerçekten çok yüksek ve belirgindir; ve bir
üflemeyle tanıtılması gerekmez. Şiir ve Tarih arasında taht kurmuştur.
Yasalarından habersiz olanlar bile etkisini ve yağmur gibi eşit şekilde adil ve adaletsizlere yağan yatıştırıcı zarafeti hissederler.
İnsanın doğası her zaman gerçekten yüce ve güzel olana karşılık verir; yalnızca en aşağılanmış olanlar bu mutluluk kaynağından mahrum kalır. Ve zulüm, sefalet veya içki yüzünden alçalıncaya kadar çok az kadın vardır ki, kendi kişilerini, çocuklarını ve evlerini süslemek için mütevazı bir şekilde (ama özellikle iğneleriyle) çabalamazlar; ve eğer sanatları yüksek olmasa bile, onları
yükseltme gücüne sahiptir.[14] En hırslı kadınlar daha yüksek bir uçuş denemeye çalışırken,
şiir, edebiyat, resim ve hatta heykel alanlarına doğru
(neden hiçbir kadın mimar olmadı?), milyonlarca kişi binlerce yıldır iğne sanatının tadını çıkardı ve dünya var olduğu sürece bu sanat bir teselli ve zevk olmaya devam edecek, çünkü tüm sanatlar gibi,
yaratmanın sürekli yeni sevincini veriyor.

DİPNOTLAR:

[3] Argyll Dükü'nün "Doğanın Birliği"ne bakın.

[4] Duvarlar, sütunlar ve çatılar, oyulmadan veya boyanmadan önce kesinlikle tekstil süsleriyle asılırdı.
Bu Semper'in teorisidir ve Woltmann ve Woermann ("Resim Tarihi", İng. Trans., Sidney
Colvin, s. 38) bu görüşü pek kabul etmese de, buna karşı çıkmazlar. Koru için perdeler dokuyan kadınlar,
veya daha doğrusu, korudaki "evler için örtüler" dokuyan kadınlar, muhtemelen Astarte rahibeleriydi ve
çeşitli renklerde perdeler dokuyor ve işliyorlardı. 2 Krallar
xxii.; Hezekiel xvi. 16-18.

"En eski resim türlerinin
çeşitli renklerdeki figürlü kumaşlar üzerine dokunmuş veya işlenmiş olması muhtemeldir; ve bu süslemelerde Yunanlılar ilk olarak bunları çok eski zamanlardan beri uygulayan Sami ırklarını taklit etmişlerdir." Bkz.
Woltmann ve Woermann'ın "Resim Tarihi" (İng.
Çev.), s. 38.

[5] Yeşu vii.

[6] Hezekiel xxvii. 23.

[7] Hem mecazi hem de gerçek anlamda medeniyetini çevreleyen ve binlerce yıl boyunca dış dünyanın medeniyetini
çevreleyen Çin duvarı.

[8] Kral John'un mezarı açıldığında, cesedin heykelinde tasvir edilenle aynı elbiseye sarılı olduğu görüldü.
Kara Prens'in işlemeli kadifeden yapılmış cübbesi hâlâ anıtının üzerinde asılı duruyor ve
üzerinde tam olarak yeniden üretiliyor.

[9] Yine de insanlar da işleme iğnesini kullandılar.

[10] Bu kalıntılar, kehribardaki samanlar gibi,
sadece merak uyandırıcı oldukları için değerli değiller; sanat eseri olarak en çok düşündürücü olanlar.

[11] Papa'nın Homeros'u, İlyada, kitap iii.

[12] Aynı eser, kitap vi.

[13] Shakespeare, "Perikles, Tyre Prensi", perde iv.
20; v. 5.

[14] Elbette, İtalya'da suçluların ömür boyu hapsedildiği hapishanelerde sanatsal çalışmaların yapılmasına izin veren insanileştirici ve Hristiyan bir ilkedir. Merhamet Rahibeleri, büyük suçlar işledikten sonra bir daha asla görülemeyecek olan zavallı kadınlara dantel yapımını öğretirler. Çalışmanın ürünü hapishanenin masraflarını ödemeye yardımcı olur ve aynı zamanda çok küçük bir yüzdesi mahkumlara arkadaşlarına göndermeleri veya küçük konforlara harcamaları için verilir, böylece zavallı insan yaratıkları en iyi güçlerini kullanmaya teşvik edilir. Bunun bazen İngiltere ve Fransa'da da izin verildiğine inanıyoruz.

BÖLÜM I.

STİL.

Stil tarihi gibi büyük bir konuya yaklaşmaya cesaret ederken, okuyucularımdan her noktada önceki yazarlar tarafından çok daha fazla şeyin dikkatlice ele alındığının ne kadar iyi farkında olduğuma inanmalarını rica ediyorum,
sadece tekstil sanatına ve özellikle nakışa ışık tutmayı amaçlayan bir bölümün sınırlarına girmeyecektir.

Sanırım bu, ciddi bir çalışmaya değer olan tüm insan spekülasyon konularında aynıdır; ve bu nedenle iğne işi ve nakış üzerine ne kadar çok şey yazıldığını ve en azından ben bu duyuruları ne kadar bilinçsizce görmezden geldiğimi, ta ki başkalarıyla birlikte canlandırmaya ve geliştirmeye çalıştığım sanatın tarihi ve prensipleri hakkında bir şeyler bilmem gerektiğini fark edene kadar şaşırmamalıydım.

Sonra yeni ve eski gerçekler etrafımı sardı ve önemli ve ilginç hale geldi. İlk işçi ve ilk iğne hakkında bir şeyler bilmeyi özledim; ve işte iğne bulundu! --Neolitik mağara adamının yaşamının kalıntıları arasında, kemikten yapılmış ve çok düzgün bir şekilde
işlenmiş.

Ne yazık ki! İşçi kadın ve işi toza karıştı; ama _işte_ iğne! --Britanya'daki son buzul döneminden önce zanaatın var olduğunun kesin kanıtı.[15] Bunun ne kadar zaman önce olduğunu tahmin edebiliriz, ama
asla kesin olarak belirleyemeyiz. Sonra, en eski tarihçiler, antik çağın her şairi ve Doğu'daki ilk gezginler tarafından isimlendirilen nakışı buluyorum; ve Hindistan'daki Manu Kanunu'nun tarihinden günümüze kadar yasa ve yönetmeliklerin konusu olmuştur. İnsan tüm bu bilgileri sistemleştirmeye ve zanaatın işçileri ve düşünürleriyle çalışmasından alınan zevki paylaşmaya hevesleniyor.

Belki de burada toplananlar biraz kel ve kopuk görünebilir; ancak hem insan hem de tarihsel antik çağ kel olmaya meyillidir; ve onun yerinden oynaması ve kopuk durumu, iğne işinin atlattığı sık sık yaşanan fiziksel, politik ve sosyal felaketlerden kaynaklanmaktadır; bu da bize Manu Kanunu uyarınca dekorasyon için aynı amaçlara hizmet eden ve vahşi doğadaki Kutsal Alanı süsleyen aynı dikişleri getirmiştir; ve bu dikişler muhtemelen o zamanlar yeni değildi.

Birbirini izleyen stillerin[16] kökenine dair kısa bir taslak sunmayı, onları yerinden eden veya değiştiren ulusal etkileri ve dış olayların neden olduğu stil örtüşmesini belirtmeyi öneriyorum.

Öncelikle "STİL"in ne anlama geldiğini tanımlayacağım.

Stil, kısa veya uzun bir ulusal dönemin sanata bıraktığı izdir.
Sönüp gider, azalır ve sonra sahneye yeni malzemeler, ihtiyaçlar ve zevkler (ya ithal edilen ya da yeni koşullar altında ortaya çıkan) taşıyan bazı tarihsel unsurlar girer.
Günümüzün sanat ve edebiyattaki stili o kadar belirgin bir şekilde değişir ki, herhangi bir sanatsal eğitim almış olan herkes hemen farkı fark eder.

Son yıllarda, tarih bilimi dil bilimi tarafından büyük ölçüde desteklenmiştir. Sanatın sessiz dili sabırla çözüldüğünde, tarihçi gerçeği araştırmalarında yeni güçlerle donatılacaktır.

İlk "silinemez" bir _kelimedir_; ikincisi bir _desen_. Bu
iğne işi tarihiyle kanıtlanmıştır.

Dünya yaşlandıkça, gençliği daha da ilginç hale gelir. Ah! İnsanlığın çocukluğu o kadar uzaklarda ve harflerini öğrenmesi o kadar uzun sürdü ki, teorilerimizi sağlam bir şekilde inşa edebileceğimiz çok az gerçek bize ulaştı; yine de son birkaç yılda, tarihi kalıntılardan ve mezarlardan ve hatta geçmişin toz yığınlarından çıkarma bilimsel yönteminde kaydedilen büyük ilerlemeyi kabul etmeliyiz. Elli yıl önce Orta Afrika'nın o zamanki haritaları kadar boş olan bütün çağlar, şimdi yavaş yavaş dönüm noktalarıyla örtülüyor.

Layard, Rawlinson, C. T. Newton, Botta, Rassam, Schliemann, Birch, G. Smith ve bir grup arkeolog ve hatta bilim dışı kaşif, insanlık tarihinin yeniden inşa edildiği materyalleri topluyor.

Onlardan nakış sanatı hakkında bilgi edindim ve Semper'in ona antik çağda yüksek bir öncelik verdiğini, onu tüm sanatın temeli ve başlangıç ​​noktası yaptığını gördüm. Sadece insanı değil, mimariyi de tezgah ve iğnenin ürünleriyle giydirir; ve onlardan sırayla resim, kabartma ve heykel türetir.[17]

* * * * *

Stil iki farklı açıdan, iki farklı bakış açısından ele alınmalıdır. Birincisi, tarihsel ve arkeolojik olarak, birbirini izleyen formları ayırt edip tarihlendirmek; ve bunları doğal sıralarına göre geriye doğru izlemek; böylece bizi her bir sanatın köküne, hatta tohumuna[18] yönlendirmek.

En yüksek biçiminde mimarlığın hizmetçisi olan yardımcı nakış sanatı, telkinlerle doludur ve "Başlangıçta" metninde doruğa ulaşan araştırmada bize büyük ölçüde yardımcı olabilir.

Stilin ele alınması gereken diğer bakış açısı estetiktir. Bu, farklı dönemlerin eserlerini eleştirmemizi;
mümkün olduğunca güzel ve övgüye değer olan için kurallar çıkarmamızı ve "neden?"i bulmaya çalışmamızı sağlar; ayrıca sanatta dehanın, düşüncenin ve buluşun en iyi ve en yüksek çabalarından sonra çürümenin çok kısa bir süre sonra geldiği yasanın işleyişini gözlemleriz.

Şimdiki amacım, iğne işiyle ilgili oldukları ölçüde, ardışık stillerin tarihidir.

Ne yazık ki! Hiçbir şey kalıcı değildir. Bu yasa, Goethe tarafından, güzel olan her şeyin ölmesi gerektiğini, sadece geçici olana güzellik bahşettiğini ağlayan Venüs'e cevap verdiğinde kabul edilir.

En iyiye ulaşıldığı anda, insanlar daha iyisi için mücadele etmeyi bırakıp umutsuzca geri çekilip sadece taklitçiler haline geliyorlar. Artık bir türü takip etmiyorlar, bir modeli kopyalıyorlar ve sonra kopyayı kopyalıyorlar. Taklit bir uçurumdur, düşüncenin yoksulluğundan üslubun yerine üslup kaosuna doğru hızlı bir iniş.

Bütün insan zihinlerinde var olan taklit eğilimi, görmezden gelinemez veya hor görülemez. Bireylerde güzelliğe olan coşkuya ve sempatinin zarif cazibesine eşlik eder. Örnekten örneğe, sanatçıdan sanatçıya, yüzyıldan yüzyıla sürekliliği korur; ve bir ustanın ardışık üsluplar hakkında kesin olarak "Bu on altıncı yüzyılın İspanyol eseri; şu on yedinci yüzyılın Flaman veya Alman eseri" demesini sağlayan şey budur.

Gelişim ve en güçlünün hayatta kalması teorisi o kadar çok çalışılmıştır ki, bazen kendisine yüklenen görev altında çöker. Prosedürüne Ölüm'ü dahil etmesi gerekir. Bizim inancımızda Ölüm, daha yüksek bir varoluşa giriş anını ifade eder;
ama sanatta yok oluş anlamına gelir, geride ne bir tarih ne de bir zanaatkar bırakır - belki de sadece, bir mumyanın sargılarında saklanan mısır tanesi gibi sonsuz derecede küçük bir gelenek, ki ondan ilk kaza, sonra da bakım ve kültür, gelecekteki bir hayatı çağrıştırabilir. Sanatın başlangıçta ortaya çıktığı çeşitli yollar burada tartışılamaz; ayrıca Çinliler ve Hinduların, binlerce yıldır durmuş bir mükemmelliğe nasıl sıçramış olabilecekleri, hem genişlemeden hem de yıkımdan, kodlanmış geleneklerin kundaklama bantlarıyla korunduğu; Yunan sanatı ise güneş gibi doğup medeni dünyanın üzerinde parladı ve bir daha asla bir ihtişam dönemi görmemek üzere battı. Bu konular, geleceğin sanat tarihçisinin yardımı ve rehberliği için çalışan antropolojik filozofun çalışmasına bırakılmalıdır. İğne işindeki stil, yerli, tarih öncesi kadının kemik iğneyle, yiyecek için hazırladığı hayvanların derilerinin kenarlarını bir araya getirmesinden bu yana birçok aşamadan geçti. Giysileri oluştururken ve çadırı örterken, iğne işinin dikişten daha ileri gitmesine gerek yoktur. Ancak, dokunmuş veya örülmüş malzemede, şekillendirildiği yerde yıpranmalı ve kenarlarda püsküllü hale gelmelidir. Her uzun dikiş bir öneridir ve her şekillendirilmiş kenar bir tuzaktır.

Saçak püsküle uygundur ve şekillendirilmiş dikiş bir deseni ima eder; ağı bağlamak için yukarı dikişlere ihtiyaç vardır ve işçi farkına varmadan önce kendini süslerken, _işlerken_ bulur; ve zanaat sanat bölgesinin dışına çıkar.

Fransızların "ilkel" olarak adlandırdığı mütevazı erken dönem süsleme çabaları bildiğimiz ve sınıflandırdığımız ilk çabalardır ve tüm vahşi süsleme girişimlerinde bulunur. Bu stil esas olarak düz
çizgilerden, zikzaklardan, dalgalı çizgilerden, noktalardan ve küçük disklerden oluşur.[19]

Çeşitli desenlerle işlenmiş, birçok boyutta altın diskler, Mycenae'deki savaşçının mezarında ve Ashantee'de eşit olarak bulunur, her iki durumda da ölülerin yüzlerini kaplayan altın maskelerle birlikte bulunur. Diskler veya düğmeler bize Etrüsk mezarlarında bulunanları anımsatır, ancak bunların sonuncusunun uygulaması daha gelişmiştir. Bunlar, Sezar Sarayı'nda ipeklere dokunan "clavus" veya çivi başlı desenin kökeni gibi görünmektedir. Bu desenin kaydedilen son hayatta kalması, Orta Çağ'da kilise amaçlı dokunmuş malzemelerdedir.

Çok erken iğne işlerinden sadece burada ve orada bir parça buluruz,
zaman zaman şiir ve tarihteki geçici göndermelerle gösterilmiştir.

Hissarlik'in[20] süsleme sanatı o kadar ilkeldir ki, muhtemelen şarkısını başka yerlerde bildiği sanatla süsleyen Homeros'un Truva olarak tanımladığı şeye benzer olduğunu hissedemeyiz.[21]

İlyada ve Odysseia'nın gerçek kahramanlarının ne giydiğini bilmiyoruz; ancak Homeros'un anlattığı şeyleri görmüş olması gerektiğini biliyoruz. Homeros, bu nedenle, Truva kuşatmasının çağdaşı mıydı? Yoksa kendi zamanının gelenek ve kostümlerinden mi bahsediyor ve bunları Yunanistan'ın kahramanlık çağlarının geleneklerine mi uyguluyor? Homeros'un kendisinin tarihi ne olursa olsun, çağdaş kalıntılar yardımıyla evi ve salonu yeniden inşa edebilir, hatta döşeyebilir, kadınları ve prensleri, dilencileri ve çobanları giydirebiliriz. Mısır, Babil ve Asur sanatının kalıntılarından, farklılıklarını ve benzerliklerini algılayabiliriz. Tarihleri ​​çoğunlukla mezarlarda bulunan tekstil parçalarından elde ediyoruz ve bunları diğer örnekler için önerebiliyoruz. Shishak'ın kayınvalidesinin Boulac'taki cenaze çadırı, o erken dönemin tekstil sanatının ne olduğunu göstermesi bakımından çok değerlidir.[22]

[Resim: Şekil 1.
Mısır zırhı. (Wilkinson'ın "Antik Mısırlılar")]

Herodot'a göre, Mısır Kralı Amasis tarafından Rodos'taki Lindos'taki Minerva Tapınağı'na verilen zırh, muhtemelen bu tarzda işlenmişti; çünkü Babil nakışları Mısır'da çok değerliydi ve taklit ediliyordu.

Amasis tarafından Lakaedemonlulara verilen ikinci zırh, altın ve renklerle, hayvanlar ve diğer süslemelerle işlenmişti. Bu, MÖ yedinci yüzyıla aitti. [23]

Mısır'daki Teb'deki Ramses'in mezarının duvarına boyanmış armalar arasında, görünüşe göre zengin kumaştan yapılmış, aslanlar ve diğer motiflerle işlenmiş bir zırh zırhı vardır. (Resim 1.)

Fenikeliler, seyahatlerinde karşılaştıkları stilleri özümsemiş ve yeniden üretmişlerdir. Kıbrıs'ta bulunan ve "Magazine of Art" dergisinin (1883) Eylül sayısında tasvir edilen ve kazınan kaseler, iki ulusal stilin, Asur ve Mısır stillerinin bir araya gelmesinin en ilginç örnekleridir.[25]

Homeros'un "Aşil Kalkanı"[26] genel tasarımında bu kaselere benzemiş olmalı (bkz. Pl. 5). Ayrıca, Josephus'un Kudüs'teki Tapınak örtülerinin, Babil'e ait olduğunu tasvirini de hatırlatmaktadır.[27]

Tüm sanatın taşıyıcısı olan Fenike, Akdeniz ve İspanya kıyıları boyunca yüzlerce yıl boyunca buraya ve oraya örnekler bıraktı. Onun okyanus yolunu Afrika'nın batı kıyılarına ve hatta Amerika'ya kadar takip edebileceğimizi düşünüyoruz;
aksi takdirde, Peru'daki bir mumya sargısının Mısır'daki Saccarah'ta[28] bulunan ve tam olarak aynı goblen tarzında dokunmuş sargılardan bazılarını bu kadar çok andırması nasıl mümkün olabilirdi?

Muhtemelen Fenike ticaretinden kaynaklanan şaşırtıcı olaylar arasında, şu anda Vatikan Müzesi'nde bulunan bir Baş Rahibin
mezarında bulunan[29] rahiplik süslerinin tamamı da yer almaktadır. Bu bize uzak kaynaklardan gelen diğer arkaik sanat örneklerini hatırlatıyor, dikkatimiz zorla çekiliyor ve bunların nereden geldiğini ve Fenikeliler tarafından dağıtılmadan önce yabancı medeniyetlerden toplanıp toplanmadığını merak ediyoruz.[30]

Deforme olmuş ve itici tanrıların bazı Mısır heykelleri -daha basit türden putlar- stil olarak Hint-Dravid ve Meksika sanatına yakınlıkları nedeniyle en ilginç ve şaşırtıcı olanlardır, ancak Mısır'ınkinden tamamen farklıdırlar. Eğer Atlantis ve sanatları hiç var olmamışsa, Herodot'un konuştuğu Mısır rahibinin bu adla bahsettiği yerin Amerika'nın doğu kıyısı olduğu öne sürülebilir.

Bas kabartmalarında dikkatlice işlenen Babil ve Ninova işlemeleri, bir sanatçının tasarımını ve kölelerin işini andıran erkeksi bir görünüme sahiptir. Zarif hayallerden sonra gelen bir şey yok; seçilmiş bir dizi form (her biri muhtemelen sembolik bir niyetle) diğerini takip ediyor. British Museum'daki heykellerde görülen etki, kraliyetçe muhteşem; ve insan, monarklardan veya satraplardan daha aşağı yaratıkların asla böyle ihtişamlara heves edemeyeceğini hissediyor. Muhtemelen zırhlarındaki nakışlar, iplik gibi işlenen ve malzemeden geçirilen altın telden yapılmıştı; ve aynı sistem, atların ve arabaların koşum takımlarının süslenmesinde de uygulandı. Katı nakış kütleleri daha sonra çekicin etkisine tabi tutulmuş olabilir; bu da kabartmalarda kuyumcu işi gibi görünmelerini açıklar (Pl. 1 ve 2).

[İllüstrasyon: Pl. 1.
Assurbanipal'in dövüşen aslanları.
British Museum.]

[İllüstrasyon: Pl. 2.
Babil Kraliyet Pelerini'nin bir parçası. Layard'ın "Anıtlar" serisi
i., pl. 9.]

Babil nakışlarının tarzı, gelenekselleşmiş olmasına rağmen
doğalcı görünüyor. Farklı amaçlar için
tarzlarını British Museum'daki kabartmalardan yargılayabiliriz.
Daha sonraki bir tarihte, sanatlarını Hindistan'ınkiyle birleştirdiklerinde,
Tapınak perdelerinin mistik tasarımını Josephus'un tarif ettiği gibi hayal edebiliriz; aslında, mümkün olduğunca
yeryüzünde ve üstündeki her şeyi, gök cisimlerinin görüntüleri hariç,
kapsamaktadır.[31]

Orta Çağ'daki Pers'ten küçük halılar ve günümüze kadar dokunmuş ve işlenmiş olanlar, antik Babil tarzının yankılarıdır ve insan zevkinin geleneklerinin tarihi kayıtları olarak
en ilgi çekicidir. Sanatsal ilgi alanlarımız, Hezekiel'de, Tire'nin merkezi haline geldiği kumaş ve malzemelerin listelerini okuduğumuzda harekete geçiyor ve bunları, şiir ve tarihte adı geçen çeşitli tezgahlara kadar takip etmekten keyif alıyoruz; burada
işlemelerle süsleniyorlardı ve sonra ya ticaret malı haline geliyorlardı ya da dini olarak miras olarak saklanmak üzere saklanıyorlardı veya tapınaklara veya onurlandırılan konuklara hediye olarak sunuluyorlardı.

Bay G. Smith, Babil'in şüphesiz en eski medeniyet olduğunu söyledikten sonra şöyle devam ediyor: "Bizim için Babil tarihi, kendi medeniyetimizle daha yakın bağlantısı nedeniyle Mısır'ın ötesinde bir ilgiye sahiptir.[32] Babil, Asur'a, oradan Küçük Asya ve Fenike'ye, sonra Yunanistan ve Roma'ya ve böylece tüm Avrupa'ya yayıldığı merkezdi. Yahudiler, yaratılışın ve erken dinin geleneklerini Keldanilerin Ur'undan getirdiler[33] ve böylece korundular ve tüm insanlığın mirası oldular; o harika insanların (Babillerin) bilimi ve medeniyeti ise modern araştırma ve ilerlemenin temeli oldu."[34]

Çıkış kitabında Tabernacle'ın perdeleri o kadar dikkatli bir şekilde anlatılmıştır ki, mavi veya beyaz keten perdeleri, kırmızı, mor, mavi ve altınla işlenmiş olarak hayalimizde görebiliriz;
örülmüş kumaştaki melekler; çiçekler, tomurcuklar, meyveler ve
altın çanlarla zenginleştirilmiş saçaklar: ve İsrail çocuklarının uzun esaretlerinden ne kadar az Mısır sanatı ve
tarzıyla geri döndüklerini ve
çadırdaki gezgin yaşamlarına döndükten sonra ne kadar çabuk eski Keldani eğilimlerine geri döndüklerini takdir edebiliriz.

Nimrud yakınlarındaki Balawat höyüğünün bronz kapılarında, Salmanaser'in Tsur ve Sayda'yı fethetmesini kutlamak için
kurduğu,[35] açıkça orduya bir yürüyüşte eşlik etmek için tasarlanmış taşınabilir bir çadır buluyoruz.
Perdeleri çekmek için enine direkleri olan, dört direkli bir yataktan çok daha büyük değil, hepsi çanlar ve meyvelerle
çevrelenmiş. Bu, Çadır'ın çölde kırk yıllık gezginlik
sebebine dair bir örnektir. (Resim 2.)

[Resim: Resim 2.
Balawat kapılarındaki çadır, II. Salmanaser zamanı. (İngiliz Müzesi).]

Mısır tekstil sanatı, belki de en erken örneklerine sahip olduğumuz sanattır. Bunlar Boulac'ta, Viyana'da, Torino'da ve İngiliz Müzesi'nde görülebilir.[36] Hiyeroglif, Arkaik ve Greko-Mısır, şüphesiz, çağımızın başlangıcında tamamen kaybolan ulusal orijinal stilin ardışık sonucudur. Nakışların çok azı iki bin beş yüz yıldan daha eskidir. Ancak, Süleyman'ın çağdaşının kalıntılarını örten deriden yapılmış büyük patchwork parçası, "Mısır kraliçesinin cenaze çadırı",[37] kesinlikle tasarımcının ustalığını ve MÖ on birinci yüzyılın iğne işçiliğini sergiler. (Pl. 44.)

Hint ve Mısır erken dönem sanatı arasındaki bağlantının yalnızca lotus çiçeğini bir amblem ve sürekli bir
süsleme olarak kullanmalarında var olduğu anlaşılıyor; ancak onu kullanma biçimleri karakteristik olarak
farklıydı. (Pl. 12 ve 13.)

Fenikeliler, Mısır stilinin tohumlarını antik dünyaya taşıdılar; ancak bu tohumlar yalnızca Yunanistan topraklarında kök saldı ve gelişti. Mısır stilinin taklitleri Roma'da ve tekrar Fransa'da "iki İmparatorluk" döneminde yeniden ortaya çıktı. Her iki durumda da bunlar yalnızca taklitlerdi ve hiçbiri kendi zamanlarının
sanatı üzerinde kalıcı bir etkiye sahip değildi.

Sanatsal kültürümüzün Doğu kaynaklarından çok sık bahsetmem gerekecek.

Bizim kendi Ari atalarımız o kadar güzel fikirlerle doluydu ki, doğalcı süslemelere olan tüm zarif takdirimizi onlardan aldığımıza inanmalıyız. Fakat Aryan sanatı bile Doğu topraklarında tersliklerle karşılaştı ve oradan sürekli olarak yeniden yükseldi ve kendini yeniledi. Moğollar bir süre Hindistan'daki güzellik unsurunu ezdi. Bunlar, tek karşılığı Orta Amerika'da olan barbarca ve iğrenç bir üslup getirdiler. Bu, batıl inançlı, zalim ve şeytani bir dinin ürünüydü.

Zarif ve manevi olan Hindistan'ın Aryan sanatı, Pers'in benzer etkisiyle ve Avrupa'daki Rönesans'la yeniden canlandırıldı.
Hindistan'da İtalyan ve diğer sanatçılar istihdam edildi ve "hava zarafeti ruhu ve doğal formlardaki narin güzellik duygusu,
300 yıl boyunca yeniden çiçek açtı ve gelişti. Kuşlar, çiçekler, meyveler,
kelebekler, bir kez daha her malzemenin meşru süsü haline geldi."[38]

Sir G. Birdwood'un "Hindistan Sanatları"ndan alıntı yapmaya devam ediyorum. "M.Ö. 900 ila 300 yılları arasındaki Manu Kanunu, Hindistan'ın köy sistemine, en azından 2500 yıl boyunca aynı manipülasyonlar için eğitilmiş ve bu nedenle önlerine kopyalanmak üzere konulan her yabancı eseri, karakteristik olarak Hintçe bir şeye dönüştüren, kalıtsal bir sanat işçileri ve zanaatkarlar sınıfı sağlamıştır."[39] Hint sanatı, kendi bireyselliğini kaybetmeden tüm kaynaklardan serbestçe ödünç almıştır. "On altıncı yüzyıldan daha yeni hiçbir şey yoktur; ve o zaman bile, özellikle küçük sanatlarda hiçbir şey orijinal değildi." denmiştir. Ancak bunun nedeni, Hinduların eşit derecede özümseme ve alıcı kapasiteye sahip olmasıdır[40], böylece Hint zanaatkarının elinde her şey, antik Hint sanatının belirgin ifadesini alır.

Hindistan'da her şey elle işlenir; Ancak dekoratif sanatının ruhu "kristalleşmiş bir geleneğin ruhu olduğu için, türü Aryan dehasının Ramayana ve Mahabharata'da doruğa ulaşmasından bu yana neredeyse hiç değişmeden kalmıştır - ve yine de Hindistan'daki her zanaatkar gerçek bir sanatçıdır."[41] Sanatta, ne yazık ki, "harf öldürür"; ve gerçek sanatçılar oldukları için, eski gelenekler onları bağlar ve kısıtlar,
eski malzemeler, boyalar ve zamanın mutlak hakimiyeti ise zayıflamaktadır: böylece Hint nakışlarının ve diğer süslemelerin güzelliği, giderek sanat için savaşın iniş çıkışlarından bile daha tehlikeli olan üsluba indirgenmektedir; çünkü barışçıl günler geri döndüğünde ve fetih dalgaları yatıştığında, eski sanatlar halkın geleneklerine yeniden derinlemesine yerleşmiş olarak bulunmuştur. Yavaş yavaş eski yollarına geri döndüler, ki bu yollar Hindu zihninde o kadar silinmezdir ki belki de bugünün modalarından bile
kurtulacaklardır.[42]

Yates'in anlatımından, Avrupa'nın üç farklı rotadan
Doğu'dan gelen sanat ve üretim zevkiyle
beslendiği anlaşılıyor.

Tüm Doğu kökenleri ve gelenekleriyle Mısır medeniyeti, Akdeniz ve Adriyatik üzerinden bize ulaştı; Fenikeliler, onu bu kanallardan getiren tüccarlardı. Avrupa'nın seyyar satıcıları olan Etrüskler, kuzeye seyahat ederek altın süs eşyaları ve mercan taşıdılar ve jet ve kehribar getirdiler. Ticari izleri, yollarındaki mezarların içeriklerinden takip edilebilir.[43]

[İllüstrasyon: Pl. 3.
St. John. Kral Alfred'in Kelt İnciller Kitabı'ndan. Lambeth
Saray Kütüphanesi.]

İkincisi, Doğu Asya'dan gelen ve Doğu sanatını
Avrupa'nın kuzeyine taşıyan bir Slav rotası da vardı. Kesinlikle Hint-Çin stiline benzeyen Kelt sanatı, muhtemelen
bu rotayla bize ulaştı. Kelt ailesinin bir başka kolu da
Adriyatik'in kuzeydoğu kıyılarına yerleşmişti. Sanattaki Kelt fikirleri ve biçimleri
muhtemelen bu noktadan Avrupa'yı geçti[44] ve kuzeyden gelen bir
benzer etkiyle[45] bize ulaştı.[46] (Pl. 3.)

Üçüncüsü, Doğu zevki ve tekstilleri Bizans İmparatorluğu'ndan Hıristiyanlığın ilk günlerinde geldi ve Sicilya, İtalya, İspanya ve
son olarak Fransa, Almanya ve Britanya'ya yayıldı. İster İskandinav isterse bizim daha saf Kelt olsun, Rün sanatı, diğer tüm Avrupa ulusal ve geleneksel tasarımlarından bağımsızlığıyla o kadar dikkat çekicidir ki, işlemelerinden hiçbirinin kesinleşmiş kalıntısı olmamasına rağmen, buna dair kısa bir notu atlayamam.[47] Görünüşe göre, kendi evrensel damgasına ek olarak -açıkça tek bir orijinal kaynaktan türetilmiştir-
üzerine, aktığı her ülkenin bir mührü gibi, belirli etkiler basılmıştır.[48] Rünler taşa
oyulduğunda veya bronz, altın, gümüş, fildişi veya tahta üzerine işlendiğinde veya muhteşem ışıklandırmalarıyla boyandığında (çoğul. 4), inançlarının işareti olan ilgili yılan, bazen Rün yazıtlarıyla
kaplı olarak görünür; ve bu yazılı yılan, daha sonra, dönüşümün türü olan, kendine özgü İskandinav biçimli haçın etrafına sarılır veya dibine yığılır. Yılan bazen dört ayaklı bir hayvanın kısmi görünümüne dönüştürüldü, gövde ve kuyruk uzatılıp büküldü ve bazen de desene yeni bir yön vermek için bölündü. (Şekil 3.) Tüm bu zoomorfik desenler, Kells Kitabı'nda, Lambeth'teki ayin kitabında ve Lindisfarne Kitabı'nda (ancak stili daha İngiliz olan) görülen insan figürleri de bir Hint-Çin tipindedir; hasır işi motifler genellikle ilgili yılan tasarımının yerini alır.

[Resim: Şekil 3.
Kelt Zoomorfik deseni.]

Kendi Kelt sanatımızın Paganizmi, ortaya çıktığında, ilk ve ikinci Hristiyan dönüşümlerimiz arasında bir enterpolasyondur ve Vikinglerin İskoçya ve İngiltere'ye yaptığı akınlarla bize getirildi.

[Resim: Lindisfarne El Yazmaları'ndan bir sayfa. British Museum]

[İllüstrasyon: Pl. 5.
Palestrina'dan gümüş kase. Ganneau. "Journal Asiatique, Coupe de Palestrina." 1880.]

Onların gelişmiş ve en eşsiz sanatlarına dair bilgimiz, savaşçının tüm silahları, atı ve değerli eşyalarıyla birlikte gömüldüğü mezarlarından gelir;
-gelecekteki bir dünyada bunlara tekrar ihtiyaç duyacağına inanılarak.

Bu kuzey geleneği o kadar uzun ömürlüydü ki, Töton Tarikatı'nın bir şövalyesi olan Frederick Casimir, 1781'de kılıcı ve atıyla birlikte Treves'e gömüldü.[49]

Hope'un "Antik Çağ Kostümleri"ni ve Millingen ve diğerlerinin eserlerini inceleyerek Yunan nakışlarını mükemmel bir şekilde takdir edebiliriz;
ayrıca British Museum'daki ve diğer yerlerdeki kurgusal vazoları da inceleyebiliriz. Bunlarda
Yunan tanrıları, savaşlar ve Yunanlıların ev hayatı tasvir edilmiştir. Perdelerindeki işlenmiş veya dokunmuş desenler sonsuz
çeşitlidir ve yüzyıllar boyunca süren tasarımlara yayılır ve neredeyse
her zaman güzeldirler. Bunda ve tüm sanatlarında Yunan zevkinin taklit edilemez olduğunu itiraf etmek üzücüdür; ancak bize öğrettiği derslerden faydalanabiliriz. Bunlar şunlardır: gereksizlik olmadan çeşitlilik; yapmacıklık olmadan zarafet; yoksulluk olmadan sadelik; şaşırtıcı, acı verici veya hayranlık uyandırıcı olandan ziyade uygun, uyumlu ve dingin. Bu ilkeler
en küçük sanatlara taşınmıştır ve bunları bir bardağın şekillendirilmesinde veya bir şöminenin dekorasyonunda, örneğin Parthenon'un frizinde izleyebiliriz.

Homeros kadınların işlerinden sürekli olarak bahseder. Penelope'nin ağı
en sık alıntılananıdır. Bu, kayınpederi için bir kefendi. Ulysses, seyahatleri sırasında güzel ev sahiplerinin bağışladığı
büyük bir ince işlemeli giysi koleksiyonunu eve getirdi.

Pallas Athene, işlemecilerin zanaatını destekledi; ve heykelini örten ve her yıl yenilenen kutsal peplos, tapınağının bir rahibesinin gözetimi altında asil bakireler tarafından işlendi. Tanrıların ve devlerin savaşlarını temsil ediyordu (şek. 4), ta ki yaşayan insanların portreleri tasarıma küfürlü bir şekilde dahil edilene kadar. Yeni peplos tapınağa taşındı,
bir bayrak gibi dalgalanarak, şehrin içinden alay halinde geçti. Yunanlıların bu sanatın korumasını verdiği tanrıça hem bilge hem de yetenekliydi ve kadınların iğneleriyle resim yaparak sanata saygıyla yaklaşmalarının iyi olduğunu biliyordu. O her zaman işlemeli giysilerle görüldü ve bunları kendisi dokuduğu gibi çalıştı. Domuz çobanı Eumoeus'un yanında Ulysses'e "uzun boylu ve güzel, muhteşem el işlerinde yetenekli bir kadın" olarak göründü.[50]

[Resim: Şekil 4.
Kutsal peplos giymiş Pallas Athene.
(Panathena Vazosu, British Museum.)]

Homeros kadınların işini ve hazine evlerinde saklanan muhteşem giysilerle dolu sandıkları övmekten asla bıkmaz.[51] Helen, Telemakhos'a
işini verdi: "Güzel hanım Helen,
kendisinin işlediği
tuhaf iğne işi cüppelerinin bulunduğu sandığın yanında duruyordu. Sonra güzel hanım Helen,
hepsinin en geniş ve en güzel işlenmiş olanını
kaldırdı ve bir yıldız gibi parladı; ve bunu gelecekteki eşine
bir hediye olarak gönderdi."[52]

Semper'in teorisi, Doğu stilinin en önemli ithalatının
işlemeler olduğudur, bu nedenle Asya'dan gelen
askılar ve elbiseler şiirsel Yunanlıya sanatının, medeniyetinin,
efsanelerinin ve
tanrılarının motivasyonunu vermiştir.[53] Bu doğru olabilir veya olmayabilir; şüphesiz ki
onları etkilemişlerdir.[54]

Boettiger, buna göre Homeros'un güzel elbise ve döşeme tasvirlerinin
Babil ve Keldani işlemelerinden öğrendiklerinden türediğine veya en azından etkilendiğine inanmaktadır. Bu
çok olasıdır ve Aşil'in kalkanı üzerindeki şiirsel tasarımını açıklar, bu tasarımda kendi ilhamı, o zamanlar Asya'da uygulanan sanatların olasılıklarını dikte etmiştir, bu sanatların şöhreti ve ara sıra bakışları zaten batıya doğru kayıyordu. (Resim 5.)

Aşil'in kalkanının tanımı şöyledir: Hephaistos,
"topal tanrı", "aşınmayan tunçları ateşe attı; ve
kalay, ve değerli altın ve gümüş." "Kalkanı büyük ve güçlü yaptı, kalkanın kendisinde beş kat (veya daire) vardı." "Sonra
yeri ve denizi, ve yorulmayan güneşi, ve dolunayda büyüyen ayı ve her biri gökleri taçlandıran işaretleri yaptı." "Ayrıca orada ölümlü insanlardan oluşan iki şehir yarattı; ve
burada düğün şölenleri vardı ve gelinler meşalelerin ışığında eve götürülüyordu - genç adamlar dansta dönüyordu ve kadınlar her biri
kapısında hayretle duruyordu." Sonra bir sokak kavgası ve yaşlılar yargılanmak üzere oturuyordu. Diğer şehir kuşatılıyordu; ve nehir kıyılarında yapılan savaşın
harika bir tasviri var ve
[...]
Bir Elbisenin Gotik Kenarı. 4. Gotik Asma." vardır.

Pl. 31--LOI, üçüncü bir Mısır funda
deseninden bahsetmez.

Pl. 32--LOI, "Bock's Lit. Gew. ii. s. 246"ya atıfta bulunur.
Levhada "Vol i. taf. xi."ye atıfta bulunur.

Pl. 35--LOI, tavus kuşu deseninden bahsetmez. Tabakta
Farsça yazı tipinden bahsetmez.

Pl. 41--Örneklerin kaynağı LOI'de ya atlanmıştır ya da
tabakta verilenlerden farklıdır.

Pl. 68--LOI'de "on altıncı yüzyıl" vardır. Tabakta
"on beşinci yüzyıl" vardır.

Pl. 70--LOI'de "M.S. 434." Levhada "altıncı yüzyıl" yazıyor.

Pl. 72--LOI "ST. GREGORY VE ST. JOHN (PEYGAMBER)." Levhada "St. John" ve "St. Roger" yazıyor.

Pl. 74--LOI, Strutt'un kitabına levhada verilenden farklı bir başlık veriyor. Araştırmadan,
kısa başlığın aslında "İngiltere'nin Görkemli ve Kilise Antikaları" olduğu anlaşılıyor.

Pl. 76--LOI "onikinci yüzyıl" yazıyor. Levhada "XIII. yüzyıl" yazıyor.

Resimler, bir paragrafın ortasında olmamaları için gerektiği yerde taşındı.
Bazı levhaların üzerinde numaralar yok.

Marian Alford'un Sanat Olarak İğne İşi Projesi Gutenberg E-Kitabının Sonu

.
*** END OF TURKISH PART ***
*** END OF THIS PROJECT GUTENBERG EBOOK NEEDLEWORK AS ART ***

***** This file should be named 30472.txt or 30472.zip *****
This and all associated files of various formats will be found in:
        http://www.gutenberg.org/3/0/4/7/30472/

Produced by Julia Miller, jenniemuse, Sam W. and the Online
Distributed Proofreading Team at http://www.pgdp.net (This
file was produced from images generously made available
by The Internet Archive/American Libraries.)


Updated editions will replace the previous one--the old editions
will be renamed.

Creating the works from public domain print editions means that no
one owns a United States copyright in these works, so the Foundation
(and you!) can copy and distribute it in the United States without
permission and without paying copyright royalties.  Special rules,
set forth in the General Terms of Use part of this license, apply to
copying and distributing Project Gutenberg-tm electronic works to
protect the PROJECT GUTENBERG-tm concept and trademark.  Project
Gutenberg is a registered trademark, and may not be used if you
charge for the eBooks, unless you receive specific permission.  If you
do not charge anything for copies of this eBook, complying with the
rules is very easy.  You may use this eBook for nearly any purpose
such as creation of derivative works, reports, performances and
research.  They may be modified and printed and given away--you may do
practically ANYTHING with public domain eBooks.  Redistribution is
subject to the trademark license, especially commercial
redistribution.



*** START: FULL LICENSE ***

THE FULL PROJECT GUTENBERG LICENSE
PLEASE READ THIS BEFORE YOU DISTRIBUTE OR USE THIS WORK

To protect the Project Gutenberg-tm mission of promoting the free
distribution of electronic works, by using or distributing this work
(or any other work associated in any way with the phrase "Project
Gutenberg"), you agree to comply with all the terms of the Full Project
Gutenberg-tm License (available with this file or online at
http://gutenberg.org/license).


Section 1.  General Terms of Use and Redistributing Project Gutenberg-tm
electronic works

1.A.  By reading or using any part of this Project Gutenberg-tm
electronic work, you indicate that you have read, understand, agree to
and accept all the terms of this license and intellectual property
(trademark/copyright) agreement.  If you do not agree to abide by all
the terms of this agreement, you must cease using and return or destroy
all copies of Project Gutenberg-tm electronic works in your possession.
If you paid a fee for obtaining a copy of or access to a Project
Gutenberg-tm electronic work and you do not agree to be bound by the
terms of this agreement, you may obtain a refund from the person or
entity to whom you paid the fee as set forth in paragraph 1.E.8.

1.B.  "Project Gutenberg" is a registered trademark.  It may only be
used on or associated in any way with an electronic work by people who
agree to be bound by the terms of this agreement.  There are a few
things that you can do with most Project Gutenberg-tm electronic works
even without complying with the full terms of this agreement.  See
paragraph 1.C below.  There are a lot of things you can do with Project
Gutenberg-tm electronic works if you follow the terms of this agreement
and help preserve free future access to Project Gutenberg-tm electronic
works.  See paragraph 1.E below.

1.C.  The Project Gutenberg Literary Archive Foundation ("the Foundation"
or PGLAF), owns a compilation copyright in the collection of Project
Gutenberg-tm electronic works.  Nearly all the individual works in the
collection are in the public domain in the United States.  If an
individual work is in the public domain in the United States and you are
located in the United States, we do not claim a right to prevent you from
copying, distributing, performing, displaying or creating derivative
works based on the work as long as all references to Project Gutenberg
are removed.  Of course, we hope that you will support the Project
Gutenberg-tm mission of promoting free access to electronic works by
freely sharing Project Gutenberg-tm works in compliance with the terms of
this agreement for keeping the Project Gutenberg-tm name associated with
the work.  You can easily comply with the terms of this agreement by
keeping this work in the same format with its attached full Project
Gutenberg-tm License when you share it without charge with others.

1.D.  The copyright laws of the place where you are located also govern
what you can do with this work.  Copyright laws in most countries are in
a constant state of change.  If you are outside the United States, check
the laws of your country in addition to the terms of this agreement
before downloading, copying, displaying, performing, distributing or
creating derivative works based on this work or any other Project
Gutenberg-tm work.  The Foundation makes no representations concerning
the copyright status of any work in any country outside the United
States.

1.E.  Unless you have removed all references to Project Gutenberg:

1.E.1.  The following sentence, with active links to, or other immediate
access to, the full Project Gutenberg-tm License must appear prominently
whenever any copy of a Project Gutenberg-tm work (any work on which the
phrase "Project Gutenberg" appears, or with which the phrase "Project
Gutenberg" is associated) is accessed, displayed, performed, viewed,
copied or distributed:

This eBook is for the use of anyone anywhere at no cost and with
almost no restrictions whatsoever.  You may copy it, give it away or
re-use it under the terms of the Project Gutenberg License included
with this eBook or online at www.gutenberg.org

1.E.2.  If an individual Project Gutenberg-tm electronic work is derived
from the public domain (does not contain a notice indicating that it is
posted with permission of the copyright holder), the work can be copied
and distributed to anyone in the United States without paying any fees
or charges.  If you are redistributing or providing access to a work
with the phrase "Project Gutenberg" associated with or appearing on the
work, you must comply either with the requirements of paragraphs 1.E.1
through 1.E.7 or obtain permission for the use of the work and the
Project Gutenberg-tm trademark as set forth in paragraphs 1.E.8 or
1.E.9.

1.E.3.  If an individual Project Gutenberg-tm electronic work is posted
with the permission of the copyright holder, your use and distribution
must comply with both paragraphs 1.E.1 through 1.E.7 and any additional
terms imposed by the copyright holder.  Additional terms will be linked
to the Project Gutenberg-tm License for all works posted with the
permission of the copyright holder found at the beginning of this work.

1.E.4.  Do not unlink or detach or remove the full Project Gutenberg-tm
License terms from this work, or any files containing a part of this
work or any other work associated with Project Gutenberg-tm.

1.E.5.  Do not copy, display, perform, distribute or redistribute this
electronic work, or any part of this electronic work, without
prominently displaying the sentence set forth in paragraph 1.E.1 with
active links or immediate access to the full terms of the Project
Gutenberg-tm License.

1.E.6.  You may convert to and distribute this work in any binary,
compressed, marked up, nonproprietary or proprietary form, including any
word processing or hypertext form.  However, if you provide access to or
distribute copies of a Project Gutenberg-tm work in a format other than
"Plain Vanilla ASCII" or other format used in the official version
posted on the official Project Gutenberg-tm web site (www.gutenberg.org),
you must, at no additional cost, fee or expense to the user, provide a
copy, a means of exporting a copy, or a means of obtaining a copy upon
request, of the work in its original "Plain Vanilla ASCII" or other
form.  Any alternate format must include the full Project Gutenberg-tm
License as specified in paragraph 1.E.1.

1.E.7.  Do not charge a fee for access to, viewing, displaying,
performing, copying or distributing any Project Gutenberg-tm works
unless you comply with paragraph 1.E.8 or 1.E.9.

1.E.8.  You may charge a reasonable fee for copies of or providing
access to or distributing Project Gutenberg-tm electronic works provided
that

- You pay a royalty fee of 20% of the gross profits you derive from
     the use of Project Gutenberg-tm works calculated using the method
     you already use to calculate your applicable taxes.  The fee is
     owed to the owner of the Project Gutenberg-tm trademark, but he
     has agreed to donate royalties under this paragraph to the
     Project Gutenberg Literary Archive Foundation.  Royalty payments
     must be paid within 60 days following each date on which you
     prepare (or are legally required to prepare) your periodic tax
     returns.  Royalty payments should be clearly marked as such and
     sent to the Project Gutenberg Literary Archive Foundation at the
     address specified in Section 4, "Information about donations to
     the Project Gutenberg Literary Archive Foundation."

- You provide a full refund of any money paid by a user who notifies
     you in writing (or by e-mail) within 30 days of receipt that s/he
     does not agree to the terms of the full Project Gutenberg-tm
     License.  You must require such a user to return or
     destroy all copies of the works possessed in a physical medium
     and discontinue all use of and all access to other copies of
     Project Gutenberg-tm works.

- You provide, in accordance with paragraph 1.F.3, a full refund of any
     money paid for a work or a replacement copy, if a defect in the
     electronic work is discovered and reported to you within 90 days
     of receipt of the work.

- You comply with all other terms of this agreement for free
     distribution of Project Gutenberg-tm works.

1.E.9.  If you wish to charge a fee or distribute a Project Gutenberg-tm
electronic work or group of works on different terms than are set
forth in this agreement, you must obtain permission in writing from
both the Project Gutenberg Literary Archive Foundation and Michael
Hart, the owner of the Project Gutenberg-tm trademark.  Contact the
Foundation as set forth in Section 3 below.

1.F.

1.F.1.  Project Gutenberg volunteers and employees expend considerable
effort to identify, do copyright research on, transcribe and proofread
public domain works in creating the Project Gutenberg-tm
collection.  Despite these efforts, Project Gutenberg-tm electronic
works, and the medium on which they may be stored, may contain
"Defects," such as, but not limited to, incomplete, inaccurate or
corrupt data, transcription errors, a copyright or other intellectual
property infringement, a defective or damaged disk or other medium, a
computer virus, or computer codes that damage or cannot be read by
your equipment.

1.F.2.  LIMITED WARRANTY, DISCLAIMER OF DAMAGES - Except for the "Right
of Replacement or Refund" described in paragraph 1.F.3, the Project
Gutenberg Literary Archive Foundation, the owner of the Project
Gutenberg-tm trademark, and any other party distributing a Project
Gutenberg-tm electronic work under this agreement, disclaim all
liability to you for damages, costs and expenses, including legal
fees.  YOU AGREE THAT YOU HAVE NO REMEDIES FOR NEGLIGENCE, STRICT
LIABILITY, BREACH OF WARRANTY OR BREACH OF CONTRACT EXCEPT THOSE
PROVIDED IN PARAGRAPH F3.  YOU AGREE THAT THE FOUNDATION, THE
TRADEMARK OWNER, AND ANY DISTRIBUTOR UNDER THIS AGREEMENT WILL NOT BE
LIABLE TO YOU FOR ACTUAL, DIRECT, INDIRECT, CONSEQUENTIAL, PUNITIVE OR
INCIDENTAL DAMAGES EVEN IF YOU GIVE NOTICE OF THE POSSIBILITY OF SUCH
DAMAGE.

1.F.3.  LIMITED RIGHT OF REPLACEMENT OR REFUND - If you discover a
defect in this electronic work within 90 days of receiving it, you can
receive a refund of the money (if any) you paid for it by sending a
written explanation to the person you received the work from.  If you
received the work on a physical medium, you must return the medium with
your written explanation.  The person or entity that provided you with
the defective work may elect to provide a replacement copy in lieu of a
refund.  If you received the work electronically, the person or entity
providing it to you may choose to give you a second opportunity to
receive the work electronically in lieu of a refund.  If the second copy
is also defective, you may demand a refund in writing without further
opportunities to fix the problem.

1.F.4.  Except for the limited right of replacement or refund set forth
in paragraph 1.F.3, this work is provided to you 'AS-IS' WITH NO OTHER
WARRANTIES OF ANY KIND, EXPRESS OR IMPLIED, INCLUDING BUT NOT LIMITED TO
WARRANTIES OF MERCHANTIBILITY OR FITNESS FOR ANY PURPOSE.

1.F.5.  Some states do not allow disclaimers of certain implied
warranties or the exclusion or limitation of certain types of damages.
If any disclaimer or limitation set forth in this agreement violates the
law of the state applicable to this agreement, the agreement shall be
interpreted to make the maximum disclaimer or limitation permitted by
the applicable state law.  The invalidity or unenforceability of any
provision of this agreement shall not void the remaining provisions.

1.F.6.  INDEMNITY - You agree to indemnify and hold the Foundation, the
trademark owner, any agent or employee of the Foundation, anyone
providing copies of Project Gutenberg-tm electronic works in accordance
with this agreement, and any volunteers associated with the production,
promotion and distribution of Project Gutenberg-tm electronic works,
harmless from all liability, costs and expenses, including legal fees,
that arise directly or indirectly from any of the following which you do
or cause to occur: (a) distribution of this or any Project Gutenberg-tm
work, (b) alteration, modification, or additions or deletions to any
Project Gutenberg-tm work, and (c) any Defect you cause.


Section  2.  Information about the Mission of Project Gutenberg-tm

Project Gutenberg-tm is synonymous with the free distribution of
electronic works in formats readable by the widest variety of computers
including obsolete, old, middle-aged and new computers.  It exists
because of the efforts of hundreds of volunteers and donations from
people in all walks of life.

Volunteers and financial support to provide volunteers with the
assistance they need, are critical to reaching Project Gutenberg-tm's
goals and ensuring that the Project Gutenberg-tm collection will
remain freely available for generations to come.  In 2001, the Project
Gutenberg Literary Archive Foundation was created to provide a secure
and permanent future for Project Gutenberg-tm and future generations.
To learn more about the Project Gutenberg Literary Archive Foundation
and how your efforts and donations can help, see Sections 3 and 4
and the Foundation web page at http://www.pglaf.org.


Section 3.  Information about the Project Gutenberg Literary Archive
Foundation

The Project Gutenberg Literary Archive Foundation is a non profit
501(c)(3) educational corporation organized under the laws of the
state of Mississippi and granted tax exempt status by the Internal
Revenue Service.  The Foundation's EIN or federal tax identification
number is 64-6221541.  Its 501(c)(3) letter is posted at
http://pglaf.org/fundraising.  Contributions to the Project Gutenberg
Literary Archive Foundation are tax deductible to the full extent
permitted by U.S. federal laws and your state's laws.

The Foundation's principal office is located at 4557 Melan Dr. S.
Fairbanks, AK, 99712., but its volunteers and employees are scattered
throughout numerous locations.  Its business office is located at
809 North 1500 West, Salt Lake City, UT 84116, (801) 596-1887, email
business@pglaf.org.  Email contact links and up to date contact
information can be found at the Foundation's web site and official
page at http://pglaf.org

For additional contact information:
     Dr. Gregory B. Newby
     Chief Executive and Director
     gbnewby@pglaf.org


Section 4.  Information about Donations to the Project Gutenberg
Literary Archive Foundation

Project Gutenberg-tm depends upon and cannot survive without wide
spread public support and donations to carry out its mission of
increasing the number of public domain and licensed works that can be
freely distributed in machine readable form accessible by the widest
array of equipment including outdated equipment.  Many small donations
($1 to $5,000) are particularly important to maintaining tax exempt
status with the IRS.

The Foundation is committed to complying with the laws regulating
charities and charitable donations in all 50 states of the United
States.  Compliance requirements are not uniform and it takes a
considerable effort, much paperwork and many fees to meet and keep up
with these requirements.  We do not solicit donations in locations
where we have not received written confirmation of compliance.  To
SEND DONATIONS or determine the status of compliance for any
particular state visit http://pglaf.org

While we cannot and do not solicit contributions from states where we
have not met the solicitation requirements, we know of no prohibition
against accepting unsolicited donations from donors in such states who
approach us with offers to donate.

International donations are gratefully accepted, but we cannot make
any statements concerning tax treatment of donations received from
outside the United States.  U.S. laws alone swamp our small staff.

Please check the Project Gutenberg Web pages for current donation
methods and addresses.  Donations are accepted in a number of other
ways including checks, online payments and credit card donations.
To donate, please visit: http://pglaf.org/donate


Section 5.  General Information About Project Gutenberg-tm electronic
works.

Professor Michael S. Hart is the originator of the Project Gutenberg-tm
concept of a library of electronic works that could be freely shared
with anyone.  For thirty years, he produced and distributed Project
Gutenberg-tm eBooks with only a loose network of volunteer support.


Project Gutenberg-tm eBooks are often created from several printed
editions, all of which are confirmed as Public Domain in the U.S.
unless a copyright notice is included.  Thus, we do not necessarily
keep eBooks in compliance with any particular paper edition.


Most people start at our Web site which has the main PG search facility:

     http://www.gutenberg.org

This Web site includes information about Project Gutenberg-tm,
including how to make donations to the Project Gutenberg Literary
Archive Foundation, how to help produce our new eBooks, and how to
subscribe to our email newsletter to hear about new eBooks.
