*** START OF AKTAHEADER ***
Başlık: A Modern Telemachus (Modern Bir Telemakhos)
Yazar: Charlotte M. Yonge
Yayın Tarihi: December 29, 2007  [eBook #4271]
Dil: English
Link: https://www.gutenberg.org/ebooks/4271
Çeviri: Python-deep_translator-GoogleTranslator
Kategori: din
*** END OF AKTAHEADER ***
The Project Gutenberg eBook, A Modern Telemachus, by Charlotte M. Yonge,
Illustrated by W. J. Hennessy


This eBook is for the use of anyone anywhere at no cost and with
almost no restrictions whatsoever.  You may copy it, give it away or
re-use it under the terms of the Project Gutenberg License included
with this eBook or online at www.gutenberg.org





Title: A Modern Telemachus


Author: Charlotte M. Yonge



Release Date: December 29, 2007  [eBook #4271]

Language: English

Character set encoding: ISO-646-US (US-ASCII)


***START OF THE PROJECT GUTENBERG EBOOK A MODERN TELEMACHUS***

*** START OF TURKISH PART ***
David Price tarafından 1889 Macmillan and Co. baskısından transkribe edilmiştir, e-posta
ccx074@pglaf.org

MODERN BİR TELEMAKUS

{'Sakin ol' çizimi: s1.jpg}

'Sakin ol; ne söylediklerini duymak istiyorum.'--S. 2.

W. J. HENNESSY TARAFINDAN RESİMLENDİRİLMİŞTİR.

Londra
MACMILLAN AND CO.
VE NEW YORK
1889

_Tüm hakları saklıdır_

_Birinci Baskı_ (2 _Cilt. Crown_ 8_vo_) 1886
_Yeniden basıldı_ 1887, 1889

ÖN SÖZ

Bu hikayenin fikri, geçen yüzyılın başlarında Scott adlı bir kişi tarafından derlenen _The Mariners' Chronicle_ adlı kitaptan alınmıştır - son derece ilginç resimlerle
deniz maceralarının anlatıldığı ilginç bir kitap. Hiçbir şey bana gerçeğin kurgudan daha garip olduğunu daha açık bir şekilde göstermedi, çünkü burada en olası olmayan şey gerçektir.

Kont de Bourke aslında Fransa'da vatandaşlığa geçmiş bir İrlandalı Jakoben'di
ve Marquis de Varennes'in kızıyla evliydi ve Berwick Mareşali Dükü'nün gözünde büyük itibar görüyordu.

1719'da, İspanya Kralı V. Philip'in ikinci eşi Elizabeth Farnese'nin hırsı ülkeyi İngiltere, Fransa ve Avusturya ile savaşa sürüklediğinde, Kont İspanya Büyükelçiliğinden İsveç Büyükelçiliğine transfer edildi ve karısını ve iki büyük çocuğunu bir İspanyol limanına katılmaya çağırdı.

Bu düzenleme o kadar garipti ki, bunu ancak İskoçya'daki Jakobenler adına zayıf bir İspanyol girişiminin tarihi olduğu için, Kont de Bourke'un doğrudan yolu kullanmamış olabileceğini varsayarak açıklayabiliyorum. Veya atandığı büyükelçi olarak Fransa'ya yeniden girmesi görgü kurallarına uygun olmayabilir. Her neyse, zavallı Kontes Güney'e doğru bu yolu izledi ve ben anlatının doğru olması gerektiğini düşünüyorum, çünkü edinebildiğim tüm yan ışıklar bununla mükemmel bir şekilde uyuşuyor, genellikle beklenmedik bir şekilde.

Süit ve bagaj da hikayede aynı şekilde ilişkiliydi - aldığım tek özgürlük isim vermek oldu. 'M. Arture' aslında gruptandı, ancak onu İrlandalı yerine İskoç yaptım ve uşağın Fransız olmadığı hakkında hiçbir bilgim yok. Rahip'in aptallığı sadece çaresizliğinden kaynaklanan bir çıkarım, ancak elbette bu hastalıktan kaynaklanmış olabilir.

Avignon'da M. de Varennes ile buluşması, Berwick'in bir refakatçi teklifi
ve Kontes'in Pireneler'den korkması, hepsi gerçektir, ayrıca Barselona'ya giden Ceneviz tartanına binmesi ve onu bir Hollandalı kaçak tarafından yönetilen Cezayir korsanı tarafından ele geçirilmesi, ona iyi davranan ve saatini ona veren kişidir.

Cezayir tarihi, onun muamelesi hakkında söylenenleri doğrular. XIV. Louis, korsan şehrini bombalamış ve Dey'i bir konsolos almaya ve Fransız esirleri ile Fransız mallarını serbest bırakmaya zorlamıştı; ancak hanımefendi bir İtalyan gemisine
alındığı için, Hollandalı, şüphe altına girmemek için onu önce Cezayir'e götürmeden karaya çıkarmaktan korkuyordu. Kendi gemisine bu kadar çok kadını almaya cesaret edemezdi,
açıkça iki yüzden fazla Türk ve Mağribi'den oluşan mürettebatından korkuyordu, fakat yedi adamı gemiye gönderdi ve onu yanına aldı.

İlginçtir ki, tarih, tartanı esir alan kişiden ayıran fırtınadan bahseder, çünkü bu fırtına Fransız nakliye gemilerini parçaladı ve Berwick'in İspanya seferine müdahale etti.

Enkazın koşulları yakından takip edildi. 'M. Arture'
aslında Mademoiselle de Bourke'yi kurtardı ve onu
_maitre d'hotel_'in kollarına bıraktı, o da Abbe, uşak ve dört hizmetçiden biriyle birlikte bir kayaya ulaşmıştı. Diğer üçü de hanımları ve oğluyla birlikte kamaradaydı ve kaderlerini paylaştılar.

Gerçek 'Arture' kıyıya yüzmeye çalıştı, ancak bir daha asla görülmedi,
bu yüzden küçük çocukla yaşadığı maceralar tamamen hayal ürünüdür. Ama
küçük kızın davranışı tamamen doğrudur. Kahyanın kollarındayken
vahşilerin canını alabileceğini ama asla
inancından vazgeçmesini sağlamaması gerektiğini ilan etti. Bu esir alanların anlatımı büyük bir zorluktu, ta ki eski _Evrensel Tarih_'te Cezayir'in anlatımla harika bir şekilde uyuşan bir tanımını bulana kadar. Birkaç yıl sonra İngiliz yetkililer tarafından yapılan bir kıyı araştırmasından alınmıştı.

Araz ve Couco Dağları'nda yaşayan ve Djigheli Körfezi'ne komşu olan kabile, aslında vahşi Araplardı, yüksek bir soy iddia ediyorlardı, ancak çok gevşek Müslümanlardı ve alışkanlıkları vahşiydi. Cabeleyzes isimlerinin -ne kadar doğru bilmiyorum- 'isyan etmiş' anlamına geldiği söyleniyordu ve kendilerini Dey'den bağımsız tutuyorlardı. Cezayir tebaası hariç, tüm gemi kazası geçiren yolcuları öldürme veya köleleştirme alışkanlığındaydılar, onları sadece hayatlarıyla serbest bıraktılar.

Bütün bunlar Mademoiselle de Bourke'nin çektiği acıları mükemmel bir şekilde açıklıyor. Yağmalamanın, tehditlerin, cesetlere vahşice muamele edilmesinin, vahşi köpeklerin, kabilenin konseylerinin, esirlerin ayrılmasının ve çocuğun kahramanlığının tarihi, hepsi kelimenin tam anlamıyla doğrudur - Victorine'in savunmasının tek başına bir uydurma olduğu. Küçük kız ve _maitre d'hotel_'in dört mektup yazıp bunları farklı şanslarla Cezayir'e gönderdiği, ancak yalnızca sonuncusunun ulaştığı ve bunun büyük bir sansasyon yarattığı da doğrudur.

M. Dessault gerçek bir şahsiyettir ve Dey ile
Moors'un nezaketi de tam olarak aynı şekilde ilişkilidir, ayrıca Bugia'lı Marabout'u müzakereye göndermenin de bir yoludur.

Bay Thomas Thompson o zamanlar gerçekten İngiliz Konsolosuydu, ancak bu konudaki payı hayalidir, çünkü Arthur'un maceralarına bağlıdır.

Marabout sisteminin anlatımı _Evrensel Tarih_'ten gelir;
ancak varış, müzakereler ve şeyhin genç Fransız hanımı oğluna eş olarak tutma isteği anlatıdan alınmıştır. O, Fransa Kralı'nın kızı olsaydı, gerçekten de onunla eşit bir rakip olduğunu iddia etmiştir, çünkü o Dağların Kralı'ydı.

Cezayir'deki karşılama ve Konsül'ün şapelindeki _Te Deum_ da bana yetki veren kitapta anlatılmaktadır. Şunu da ekler:
Mademoiselle de Bourke sonunda bir Marquis de B--- ile evlendi ve Provence'ta çok saygın bir şekilde yaşadı, Devrim'den kısa bir süre önce öldü.

Sadece Fareek adında kurtarılmış bir Habeş kölenin (neyse ki dilsiz değildi) yıllar önce Winchester Koleji'nin merhum Warden Barter'ının evinde iyi tanındığını da belirteceğim.

Yukarıdakileri yazdığımdan beri, arkadaşlarımın nezaketi sayesinde Bay Scott'un yetkisini, yani _Voyage pour la
Redemption des captifs aux Royaumes d'Alger et de Tunis_, _fait en_ 1720
_par les P.P. Francois Comelin_, _Philemon de la Motte_, _et Joseph
Bernard_, _de l'Ordre de la Sainte Trinite_, _dit Mathurine_ adlı kitabı keşfetme fırsatı buldum. Bu Tarikat
Jean Matha tarafından Mağribilerin elindeki tutsakların fidye ve kurtarılması için
kuruldu. Comtesse de Bourke ve kızının maceralarının çevirisi _Catholic World_, New York, Temmuz 1881'de yayımlandı. _The Mariners' Chronicle_'daki anlatımla tam olarak örtüşüyor, ancak Bay Scott, on sekizinci yüzyılın gerçek ruhuna uygun olarak, bu din adamlarının Mademoiselle de Bourke'un mektubunun varış zamanında Cezayir'de olduklarını, onun adına aktif olarak ilgilendiklerini ve anlatıyı _maitre d'hotel_'in (ki aslında her yerde açıkça izlenebilir) dudaklarından yazdıklarını gizlemeyi uygun gördü. Ayrıca altın kadehlerin kadehler olduğu ve sunak ekipmanlarının tamamının
Cabeleyzes'in eline düştüğü anlaşılıyor. İyi babalar, ismini
_Cabale_ ile ilişkilendirmeye çalışıyorlar. Bu kelimeyi II. Charles'ın bakanlığından türetmeye çalışıyormuşuz gibi.

Bu hayırsever kardeşlerin yardımlarından zamanında haberdar olsaydım, onları kesinlikle tüm onurla tanıtırdım. Ancak, Rahip Vertot gibi, _Mon histoire est ecrite_ demeliyim ve daha da kötüsü, basılı. Üstelik, Bugia'dan gelen Marabout ile göreve gitmemiş gibi görünüyorlar, bu yüzden onların varlığı aslında sadece kurtarılan esirlerin karşılandığı _Te Deum_'u açıklıyor.

M. Dessault'un Konsül mü yoksa Elçi mi olduğu pek belli değil; ben ikincisini düşünmeye meyilliyim. _Katolik Dünyası_'ndaki çeviri Sir Arthur'dan bahsediyor, ancak Bay Scott'ın 'M. Arture'si çok daha _vraisemblable_. Muhtemelen ya gizlenmesi gereken bir soyadı vardı ya da Fransız dudaklarında telaffuz edilemiyordu. Scott, Mademoiselle de Bourke'nin sonraki tarihi hakkında daha fazla bilgiye sahip olmalı, çünkü Pere Comelin'in kitabı 1720'de yayınlandığında gerçekleşmiş olması pek mümkün olmayan evliliğinden bahsediyor.

C. M. YONGE.

BÖLÜM I--YOLCULUK YOLCULARI

'Bununla ilgili olarak
Sevdiğim babamın sağ salim
döndüğünü,
Eğer nerede olduğunu en iyi şekilde duyabilirsem,' deyin.

_Odysseia_ (MUSGRAVE).

'Ah! Kardeş, keşke sana Telemake adını verselerdi, o zaman her şey
iyi olurdu!'

'Neden öyle, kızkardeşim? Neden bu kadar çirkin bir isimle anılmalıyım?
Ulysses'i daha çok seviyorum; ve bu aynı zamanda babamın da adı.'

'Tam da bu. Adı Ulysses ve biz onu
arayacağız.'

'Ah! Umarım o zalim ihtiyar Mentor, resimdeki Telemake gibi,
büyük bir kalenin üzerinden bizi devirmek için gelmiyordur.'

'Pere le Brun'dan mı bahsediyorsun?'

'Evet; bilirsin, her zaman Mentorumuz olduğunu söyler. Ve keşke
miğferli ve kalkanlı, çirkin yüzlü bir tanrıçaya dönüşse ve
bir bulut gibi uçup gitse. Sence öyle mi, Estelle?'

'Bu kadar aptal olma, Ulick; artık tanrıça yok.'

'M. de la Mede'nin elmas kelebekli o güzel hanıma
onun tanrıçası olduğunu söylediğini duydum; öyle de var!'

'Anlamıyorsun, kardeşim. Bu sadece bir iltifat ve pohpohlamaydı.
Tanrıçalar sadece Yunan mitolojisindeydi ve uzun zaman önce her yerdeydiler!'

'Ama gerçekten babamızı görecek miyiz?'

'Ah evet, annem bana öyle söyledi. İsveç'e Büyükelçi yapıldı, biliyorsun.'

'Bu İspanya Elçisi'nden daha mı büyük?'

'Çok, çok daha büyük. Anneye Madame l'Ambassadrice diyorlar; ve
üç tane yeni elbise yaptırıyor. Bakın, _la bonne_ ve
Laurent konuşuyor. Bu İngilizce ve eğer kupalarımız ve toplarımızla yaklaşırsak her şeyi duyarız. Laurent her zaman bilir, çünkü amcam ona
anlatır.'

'Artık ona _La Juenesse_ demelisin, çünkü annemin uşağı oldu. Yeni
giysisiyle güzel değil mi?'

'Şimdi sakin ol, kardeşim; ne söylediklerini duymak istiyorum.'

Kulağa biraz kurnazca gelebilir, ancak Rousseau onları moda haline getirmeden önce Fransız çocukları arka planda tutuluyordu ve bunu yapmanın onursuz olduğu hissine kapılmadan
en iyi şekilde istihbarat toplamakla sınırlıydılar; ve aslında, onları bilgisiz bırakan şey gizleme arzusundan çok ihmalkarlıktı.

Bu, 1719'da, Louis XV.'in, yani cılız bir bebeğin Fransız tahtına çıkmasından dört yıl sonra ve Orleans Dükü'nün Naipliği sırasında gerçekleşti. Sahne, Tuileries bahçelerinde, yakından kesilmiş bir yeşillik duvarının altında, kaideler üzerinde büstler ve çiçek dolu taş vazoların dönüşümlü olarak yerleştirildiği geniş bir yürüyüş yoluydu; ötede ise resmi çiçek tarhları uzanıyordu; aralarındaki çakıllı yürüyüş yolları, şu anda hareketsiz olan bir çeşmeden yansıyordu, çünkü saat daha sabahın onuydu ve bahçeler o saatte çoğunlukla çocuklar ve hizmetçileri tarafından ziyaret ediliyordu; Estelle ve Ulysse de Bourke gibi, ayinden eve dönüş yolunda erken bir yürüyüş yapıyorlardı. Kostümlü, dönemin minyatür hanımefendi ve beyefendileriydiler; tek fark, sadece dokuz ve yedi yaşında olmaları nedeniyle saçlarının pudrasız olmasıydı. Estelle'in açık, neredeyse keten rengi bukleleri alnından geriye doğru taranmış ve arkadan gül renkli bir kurdeleyle bağlanmış, ancak başının tepesindeki minik bir dantel başlık dışında açıkta bırakılmamıştı; Ulick'in daha koyu saçları, doğanın izin verdiği kadar uzun bir peruk gibi sırtında ve omuzlarında büyük bukleler halinde dikkatlice düzenlenmişti ve üstüne altın dantelle kenarları olan küçük bir şapka takmıştı. Zengin dantelli bir kravatı, açık mavi satenden çift düğmeli bir yeleği ve buna uygun pantolonu, ceplerinde, yakasında ve eteklerinde mavi işlemeler olan kahverengi kadife bir ceketi, buna uygun ipek çorapları ve yanında bir kılıç benzeri minik kının düğümü, gümüş tokalı ayakkabıları vardı ve hepsi birlikte, küçülen bir camdan görülen tam yetişkin bir Kont veya Vikont olabilirdi. Kız kardeşi, dar uzun beli ve dirseklerine kadar uzanan kolları olan, geniş kasnaklı bir elbise giymişti, alt eteği soluk pembe, üst eteği daha koyu gül rengiydi; ancak kıyafet ne kadar sert olursa olsun, ona hafif bir genel düzensizlik havası vermeyi, şapkasını biraz yana, alnındaki gevşek bir bukleyi, kollarındaki sarkan dantelden biraz koparmayı ve cübbesini bir su birikintisiyle ıslatmayı başarmıştı. Havada, yüz çizgisinde ve ten renginde kusursuz bir küçük esmer Fransız'dı. Yüzünün hatları, daha da fazlası, pembe parıltısı, soyadına daha uygundu ve özellikle de uzun koyu kirpikleri ve kalemle çizilmiş kaşları olan büyük koyu mavi gözleri öyleydi. Ve onun etrafında canlı, huzursuz bir hava vardı, zekayla doluydu, kardeşini taştan yapılmış bir koltuğa doğru manevra yaparken, taştan yapılmış uykulu aslanları dizginleyen bir çift aşk tanrısı tarafından korunuyordu, orada, bir ıhlamur ağacının gölgesinde, iki yaşında küçük etekli kardeşi uyuyordu, koyu renk bir elbise, beyaz bir şapka ve önlük ve koyu kırmızı bir pelerin giymiş, büyük, şişman, yakışıklı bir kadının kucağında, Ağustos günü olduğu için gevşekçe geriye atılmıştı. O zamanlar, şimdi olduğu gibi, Fransız hemşireler her zaman yerel kostümler giyerlerdi; ancak bu, krallığın herhangi bir vilayetinin kıyafeti değildi ve yanında rahatça duran uzun boylu, yakışıklı genç adamla sohbet ederken kullandığı aksan kadar İrlandalıydı. Muhteşem yeşil ve altın rengi bir üniforma giymişti, saçları pudralanmış ve _sıraya_ tutturulmuştu, beyazlığı koyu kaşlarıyla ve 
Milesli olarak adlandırılabilecek o güzel İrlandalı tipinin gözleriyle ve ten rengiyle tezat oluşturuyordu. O günlerde fazlasıyla yakıştığı düşünülen elbisesiyle gurur duyuyordu ve aslında iyi yapılı vücudunu ve uzuvlarını büyük bir avantajla sergiliyordu; ama endişeyle etrafına baktı ve küçük çocuğun yanında
olarak sahneye çıktığında ilk sorusu şu olmuştu: 

'Sabahın körü, anne! Peki Victorine nerede?' 

'Arrah, Victorine'den ne istiyorsun?' diye sordu _bonne_. 'Yaşlı anne, gözlerinin önünde bir süre ziyafet çekmesi için yeterli değil mi ve'
Lanty Callaghan, şimdi _marmiton'un_ pisliğini döktü ve
bir palmer'dan gelen kelebek gibi eski İrlanda'nın renkleriyle ortaya çıktı? La Jeunesse,
buradaki Laurent ve oradaki Laurent yerine.'

La Pierre ve La Jeunesse, Fransız soylu evlerindeki tüm uşak çiftlerinin basmakalıp isimleriydi ve bu unvan bir terfi işaretiydi;
ama Lanty yüzünü buruşturdu ve dedi ki, 'Bırak artık bunu, anne. Biliyorsun ki
Usta Phelim kitaplarını taşımak ve ona öğrenmeyi aşılamak için benimle birlikte iyi babalar okuluna gittiğinden beri
ne tencere ne de çaydanlık parmaklarımı karartmadı. 'Hepsi bir, kendi üvey kardeşine yakışır şekilde, kendi beden hizmetçisi olarak, şimdiye kadar, kendim ve kâhya Maitre Hebert dışında, hizmetçilerden hiçbiri, Madame la Comtesse'i Paris'in dört duvarının ötesine kadar takip etmeyecek. "Sen de mi bizi terk edeceksin, Laurent?" diyor hanım. "Ve ben miyim, hanımefendi,"
dedim, "Üzgünüm, bir Callaghan bile Burke'ü terk etmiş olamaz!" "O zaman," dedi,
"eğer bizimle İsveç'e giderseniz, iki uşak takımı ve
yıl boyunca cebinizden çıkacak bir çift _louis d'or_ olacak, M. le Comte'a gelen tüm ziyaretçilerin
ücreti ve ikramiyesi için." "M. l'Abbe mi Madam'la
gidiyor?" dedim. "Neden olmasın," dedi. "O zaman," dedim,
"ben hanımefendinize çok şey borçluyum ve
renklerimi giyip onun hizmetinde her şeyi yapmaya hazırım, böylece
Bay Phelim'e, yani M. l'Abbe'ye, ne zaman bana ihtiyacı olursa, onun üvey kardeşi olarak görev başındayım, hizmet etmekte özgürüm." "Ah, Laurent," dedi, "sadık hizmetçi sensin. Hepimiz birbirimize yapabileceğimiz
iyi hizmetlere ihtiyaç duyacağız, çünkü M. le Comte ile tanışmadan önce ve sonra uzun ve zahmetli, hatta tehlikeli bir yolculuğumuz olacak."'

Estelle burada belli bir memnuniyetle başını salladı, dadı ise cevapladı--

'Peki babanın oğlu--Tanrılar yatağı olsun--İspanya'daki yorucu savaşlarda efendinin yanında kafasından vurulan başka hangi cevabı verebilirdi? Ve sen, seninle aynı beşikte yatan Efendi Phelim dışında kime hizmet etmek zorundasın--'

'Victorine burada değil mi, anne?' diye sordu Lanty hâlâ huzursuzca.

'Victorine'e asla kulak asma,' diye cevapladı. 'Elbette kendi küçük bir
düzenlemesi olabilir ve daha önce hiç ayrılmamış yaşlı annesi için bir sözün olabilir.'

'Gitmiyorsun, anne!' diye haykırdı.

''Kalbim seninle ve mücevherim Masther Phelim ile birlikte gidecek; ama
Madame la Comtesse, bu minik tatlımın' - kucağındaki çocuğu okşayarak - kuzeydeki o çıplak ve sefahat düşkünü yerin soğuğuna asla dayanamayacağını ve annesi yaşlı Madame la
Marquise'in tüm çocuklar onu terk ederse tamamen delireceğini söyleyecek;
ama bizim hanım, kendi dadısını ona bırakmadan küçüğü bırakamaz!'

'Bu benim için tamamen yeni bir haber, anne,' dedi Lanty; 'uğursuzluk olsun!'

Honor, oğulları onlardan daha büyük olduğunda annelerin yarı gururlu, yarı üzgün kahkahasıyla güldü. 'Güzel konuşma! Yaşlı anneyi çok önemsiyor, eğer genç kızın onunla gittiğini görebiliyorsa.'

Çünkü Lanty'nin gözleri, son derece zarif, koyu saçlarında neşeli bir şapka, siyah önlüğünde neşeli süslemeler, patikadan aşağı doğru gelen zarif ayakkabılar ve çoraplar olan ufak tefek bir figürü görünce parlamıştı. Dili, İngilizce dediği şeyden Fransızcaya anında döndü, zavallıca imalı tonlamalarla, onu nasıl
yüreğini yorabildiğini sordu.

'Kim emretti sana?' diye karşılık verdi. 'Burada zamanını boşa harcamanı asla istemedim!'

'Ve sen bana, ıssız kuzeye, ayılar, vahşiler ve sapkınlar arasında uzaklaşırken zavallı kalbimi küle çeviren gözlerden bir bakış atmayacak mısın?'

'Paris kesimi uğruna, senin güzel yeşil ve altın rengine bakacak bolca göz olacak orada; gerçi senin gibi iri yarı bir adam
bunu nasıl göstereceğini bilmiyor!'

'Ve eğer annenin kalbini kırmak için bir sapkın _bru_ getirirsem,
bu tamamen Mademoiselle Victorine'in zalimliğinin suçu olmayacak mı?'

Burada Estelle, Lanty'nin acıklı tonlamalarına dayanamayarak araya girdi,
'Önemli değil, Laurent, Victorine bizimle geliyor. Kasıtlı olarak
yeni bir dilim için ölçülmeye gitti!'

'Ah! Kendimi büyük bir sorunlu
İrlandalıdan
kurtaracağımı düşündüm!'

'Hayır!' diye karşılık verdi çocuk, 'Laurent'in gideceğini biliyordun, çünkü Maitre Hebert
az önce gelip ona bir uşak kıyafeti giydirmesi gerektiğini söylemişti!'

'Evet,' dedi Estelle, 'o zaman beni kollarına aldın ve öptün ve Madame la Comtesse'i dünyanın sonuna kadar takip edeceğini söyledin.'

Yaşlı hemşire içtenlikle güldü, ama Victorine haykırdı, 'Mademoiselle benim
çılgınlıklar
icat eden yaramaz küçük kızları takip edeceğimi mi sanıyor? Fikrimi değiştirmek benim için hala özgür. Zavallı Simon Claquette
kalbini kemiriyor ve ona _kapıcı_ olarak bırakılacak!'

Saraydaki saat on biri çaldı, Estelle kardeşinin elini tuttu,
Honor kollarında küçük Jacques ile ayağa kalktı, Victorine onun yanında volta attı,
ve La Jeunesse olarak Lanty, göğsünü şişirerek ve bastonunu sallayarak
hepsi _dejeuner_'a doğru evlerine giderken onları takip etti.

Bu anlatının başlamasından yirmi dokuz yıl önce, Boyne Water Muharebesi'nin İrlanda'daki Stewart'ların umutlarını mahvetmesinden hemen sonra,
Sir Ulick Burke, James II.'nin Waterford'dan kaçışında ona eşlik etmişti; ve
karısı, iki sadık hizmetkarı Patrick Callaghan ve karısı Honor eşliğinde, metresinin çocuğunu göğsünde ve kendi çocuğunu sırtında taşıyarak onu takip etmişti.

Sir Ulick veya Fransızların ona taktığı adla Le Chevalier Bourke, XIV. Louis ordularında hizmet etmekte hiçbir tereddüt duymadı. Callaghan onu her yere takip ederken, Honor, sürgün ve üzüntüyle ona iki kat bağlı olan
hanımefendisinin sadık bir hizmetçisi olarak kaldı.

Küçük Ulick Burke'ün üvey kız kardeşi öldü, belki de yolculuğun tüm zorlukları ve maruz kaldığı
tüm zorluklar boyunca her zaman ona ikinci planda tutulduğu için. Hem hanımefendinin hem de dadısının diğer bebekleri, o neslin çocuklarını
etkileyen ölümlülüğe yenik düşmüştü ve en büyük Burke ve bir kızı dışında hayatta kalan tek kişiler, her annenin en küçük iki çocuğuydu ve onlar o kadar yakın zamanda gelmişlerdi ki
Honor Callaghan, büyük zorluklarla büyütülen hasta bir çocuk olan Phelim Burke'ün tekrar üvey annesi olabilirdi.

Aile neredeyse Fransız oluyordu. Sir Ulick, dönemin en asil adamlarından biri olan Berwick Mareşali Dükü James Fitz-James'in yakın bir arkadaşıydı. James Fitz-James, amcası Marlborough'unkine neredeyse eşit olan askeri yeteneği, o kötü zamanlarda çok nadir görülen sarsılmaz bir onur ve dürüstlükle birleştirdi. Onun yönetiminde Sir Ulick, İspanya tahtına Bourbon Hanedanı'nı
sonunda yerleştiren seferlerde savaştı ve daha genç olan Ulick veya ismi klasikleştirilip Fransızlaştırılmış haliyle Ulysse, Almanza Muharebesi sırasında henüz bir çocukken ilk seferine çıkıyordu. Bu muharebe için ulusal tesellimiz, Fransızların bir İngiliz, Berwick Dükü, İngilizlerin ise bir Fransız, Huguenot, Galway Kontu Rubigne tarafından komuta edilmiş olmasıdır. Ancak ilk İngiliz saldırısı, ölümcül şekilde yaralanan Şövalye Bourke için ölümcül oldu ve onu savaş alanından
taşıma çabasında sadık Callaghan da aynı şekilde düştü. Sir Ulick, Dük tarafından ziyaret edilecek ve çocuklarını arkadaşının korumasına emanet edecek kadar uzun yaşadı.

Berwick'in kuru ve katı olduğu düşünülüyordu, ancak sadık bir arkadaştı ve sözünü iyi yerine getirdi. En büyük oğul, genç olmasına rağmen, Marquis de Varennes'in kızını eş olarak aldı ve kısa sürede hem savaşta hem de politikada kendini gösterdi ve böylece Comte de Bourke unvanını aldı.

Fransız Kilisesi diğer iki çocuğa bakmakla görevlendirildi.
Kızı Alice, terfi vaatleriyle Paris manastırlarından birinde rahibe oldu. Küçük oğlu Phelim'in sağlığı zayıftı ve zekası zayıftı, hatta yetersizdi ve neredeyse üvey kardeşi Laurence Callaghan'ın özverili bakımına ve şefkatine bağımlıydı. Berwick'in ilgisi on yaşındaki donuk çocuk için Champagne'deki St. Eudoce Manastırı'nı sağladığında kimse şaşırmadı. Elbette sorumluluklar büyük değildi, çünkü Manastır bir buçuk asır önce Huguenotlar tarafından yakılmıştı ve o zamandan beri hiçbir rahip olmamıştı, bu yüzden tek sonuç küçük Phelim Burke'ün Monsieur l'Abbe de St. Eudoce unvanını taşıması ve ailesinin Manastır arazilerinin gelirlerinden, Intendant'ın onlara aktarmayı uygun gördüğü kadarının tadını çıkarmasıydı. O, bir dereceye kadar, din eğitimi almıştı, Lanty'nin kendisine öğrettiği görevleri ezberlemek için yeterli hafızaya sahipti ve sadık arkadaşının kendisi için yaptığı temaları veya çevirileri kopyalayabiliyordu. İki çocuk da bu düzenlemede en ufak bir haksızlık veya aldatmaca olduğunu düşünmüyordu: bu sadece birinin diğerine doğal hizmetiydi ve eğer Lanty'nin genç Başrahip'i her gün götürdüğü İlahiyat Okulu'nun Rahipleri bunu fark etselerdi, buna göz yumuyorlardı. Ayrıca, zeki Lanty bu şekilde önemli miktarda bilgi edinmiş olsa da, bundan kendi çıkarı için yararlanma fikri aklına gelmiyordu. Sanki 'Usta Phelim'in' kullanımı için dışarıda duruyordu; ve genç efendisi için fırçaladığı _soutane_'i giymeyi düşündüğünden daha fazla bunu kendi yüceliğine uygulamayı düşünmüyordu. Rahip artık yirmi beş yaşındaydı, tıraş olmuştu ve küçük tarikatlara kabul edilmişti, ancak kardeşinin hizmetlerinin karşılığı olarak kendisine daha yüksek bir terfi verilmediği sürece daha fazla ilerlemesi için hiçbir sebep yoktu. Nazik, sevimli bir varlıktı, kendine bakacak durumda değildi; ve annesinin ölümünden sonra, kardeşinin ve yengesinin veya belki daha doğru bir ifadeyle Dowager Markiz de Varennes'in sorumluluğundaydı, çünkü ailenin tüm kolları Paris'teki Hotel de Varennes'de veya kırsaldaki şatosunda birlikte yaşıyordu ve yakışıklı yaşlı kadın her şeye hükmediyordu, oğlu ve damadı şu anda olduğu gibi sık sık yoktu.

Berwick'in davası için savaştığı İspanya Prensi V. Philip'in ikinci karısının hırsı yüzünden yeni bir Avrupa savaşı başlamıştı. Bu Kraliçe, Elizabeth Farnese, kendi oğlu için rütbe ve egemenlik istiyordu;
dahası, Philip, İspanya kendisine miras bırakıldığında istifa ettiği
ana vatanı Fransa'ya özlemle baktı; ancak şimdi kendisi ile kan yoluyla varislik arasında yalnızca hasta bir çocuk, Louis XV. kaldığından, haklarının Orleans Dükü'nün haklarından üstün olduğunu hissetti. Böylece İspanya, Fransa'ya düşman olmaya ve
Dörtlü İttifak olarak bilinen savaşı başlatmaya ikna edildi.

Hâlâ bir uzlaşma umudu varken, Comte de Bourke, Madrid'e özel elçi olarak gönderilmişti ve savaş
çıktıktan sonra bile orada kalmaya devam etti ve Berwick Dükü, Philip V.'nin minnettarlığından aldığı tüm mülklerden
vazgeçerek, bir orduyu sınırdan geçirmişti.

Ancak Kont, İsveç'e yeni Büyükelçi olarak atanmıştı ve oraya giderken ailesinin de ona katılmasını istiyordu.

Haberler büyük bir kargaşaya yol açmıştı. Madam de Varennes, İsveç'e
don ve karın Ultima Thule'si olarak bakıyordu, ancak bir elçiden beklenen gösteri için bir hanımın varlığının şart olduğunu biliyordu. Ancak, çocukların kendisiyle birlikte kalması için çabaladı; ancak kızı, zaten bir yoldaş ve arkadaş olan Estelle'den ayrılamayacağını ve Ulysse'in en büyük oğlunu özleyen babasıyla birlikte olması gerektiğini, böylece büyükannesini teselli etmek için yalnızca küçük Jacques, narin bir çocuk
kalacağını söyledi.

BÖLÜM II - BİR JACOBITE EVSİZ

'Şimdi gri sellerin üzerinden geçti,
Ve Lord Maxwell iyi gecelerini diledi.'

LORD MAXWELL'İN _İyi Geceleri_.

Madam La Comtesse de Bourke kesinlikle çaresiz, güzel bir hanım değildi. Kocasına keşif gezilerinde birkaç kez eşlik etmişti ve onunla Madrid'e gitmemişti, çünkü uzun süre ayrı kalacağını
beklemiyordu ve ayrılıktan çok pişmandı.

Kendi odasında çok meşguldü, paketlemeyi denetliyor ve
kendi akıllı parmakları hizmetçilerininkinden daha etkili olduğunda
bunda yardımcı oluyordu. Beyaz işlemeli koyu mavi bir
örtü olan _robe de chambre_ giymişti ve _deshabille_ giyen Fransız hanımların her zaman olduğundan daha düzgün giyinmişti. Çember, uzun, sert korseler, zengin brokar cübbe ve pudralı saç kumaşı da rahatlamaya veya efor sarf etmeye uygun değildi ve bu nedenle tuvaletin genellikle halka açık bir yerde yapıldığı günün geç saatlerine kadar nadiren giyilirdi.

Bu yüzden Madame de Bourke'un saçları yolundan çekildi ve gerçek renkleriyle, gerçek bir güzelliği olmayan, ancak çok etkileyici açık gri gözleri, yoğun uzun siyah kirpikleri ve tatlı, hareketli, canlı bir yüzü olan küçük, canlı, yakışıklı bir kadın olarak göründü.

Estelle küçük Jacques'ı eğlendirmeye ve kutuların arasında dörtnala koşmasını, içlerine her türlü istenmeyen şeyi
koymasını engellemeye çalışıyordu; ve
Ulysse oyuncaklarını toplamıştı ve Lanty'nin yaptığı, kendisinin iki katı uzunluğunda, başsız bir tahta at ve bir uçurtmanın onlarla birlikte gitmesi için içtenlikle yalvarıyordu.

Yolculuğun sonunda kendisi için başka bir _cerf-volant_ yapılması gerektiği söylendi; ancak yalnızca kısmen teselli buldu ve annesi bir kutu yünlü kuzu için
hazırlık yapmak istedi. Estelle, bebeği reddedildiğinde bir gözyaşını sildi, tahtadan, çok boyalı, brokarla kaplı ve ruhuna o kadar değer veren bir hanımdı ki, bu tür oyuncaklar için
çok yaşlı olduğunu ve İsveçlilerin Büyükelçinin kızının bir bebeği kucakladığını görünce
şaşacaklarını söylemek zordu. Ancak, aklı başında bir çocuk karakterini
koruması gerekiyordu ve _kapıcının_ küçük hasta kızına 'Mademoiselle' ünvanını verme izninden teselli bulmaya çalıştı, ki kız onu gerektiği gibi sevecektir.

'Ama, ah anne, kitabımı almama izin vermeni rica ediyorum!'

'Elbette, çocuğum. Bakalım! Ne? Telemak mı? "Prens Percinet ve Prenses Gracieuse değil mi?"

'Onlardan bıktım, anne.'

'Madame d'Aulnoy'un Masalları da mı?'

'Ah hayır, teşekkür ederim anne; Telemakh kadar sevdiğim hiçbir şey yok.'

'Sen komik bir çocuksun!' dedi annesi.

'Ah, ama biz Telemakh gibi olacağız.'

'Tanrı korusun!' dedi zavallı kadın.

'Evet, sevgili anne, evde kalıp ağ örmek ve çözmek yerine bizimle geldiğin için mutluyum. Penelope senin gibi olsaydı, o da
giderdi!'

'Dikkat et, Jacques Penelope'yi canlandırmıyor mu?' dedi Madam de Bourke,
küçük kızının geveze mitolojisine gülümsemeden edemeden,
en küçük oğlunun
kendisini dolaştırdığı
işlemeli ipekleri kurtarmaya giderken.

O anda kapı çalındı ​​ve bir mesaj iletildi,
Nithsdale Kontesi'nin Madam ile birkaç dakika özel olarak
konuşmak istediği. İskoç unvanı La Jeunesse'in dudaklarında, selefinin dudaklarında olacağından daha iyi yer etti.
Paris'te ve çevresindeki tüm Jakoben sürgünleri arasında hatırı sayılır bir yakınlık vardı; ve Nithsdale Kontesi Winifred,
çok sessiz ve tenha bir hayat yaşamasına rağmen,
kocasını bloktan kurtardığı
karı-koca kahramanlık eylemini hatırlayan herkes arasında yüksek bir itibar görüyordu.

Madam de Bourke hizmetçilere küçük Jacques'ı götürmelerini emretti ve Ulysse
onları takip etti; ama kaçış hikayesini sık sık hayranlıkla dinleyen ve kahramana göz ziyafeti çekmek isteyen Estelle,
köşesinde kaldı, ipeklerin karmaşasını çözmekte ve sevgili Telemak'ına ait resimleri, sohbet sıkıcı olursa diye bir kaynak olarak kullanmakta faydalı bir şekilde çalıştı. Yüzlerce resimli kitabı karıştıran çocuklar,
seleflerinin bir zamanlar nasıl hayal edebildiklerini pek tahmin edemezler.

Estelle, alçakgönüllü saygısını fark ettirmeden, ev sahibine karşı uygun bir saygı olarak kabul edilen görkemli kostüm giymiş olan zayıf figürün içeri girmesini hevesle izledi; ama uzun, gevşek mavi ipek kesesi
solmuştu, _feuille-morte_ kadife etekliği yıpranmıştı, boyun ve kollardaki dantel
yıkanıp onarılmıştı; kollarında mücevher yoktu,
ancak uzun eldivenler tam oturuyordu,
yüksek topuklu ayakkabıların tokalarında mücevher yoktu ve dikkatlice kıvrılmış ve pudralanmış saçlardaki tek süs, beyaz bir gül. Yüzü ince ve yıpranmıştı, hoş kahverengi gözleri vardı. Estelle onu Ulysses için teselli edilemez olan Calypso veya domuzun başını alan Antiope kadar güzel olduğunu düşünemezdi. 'İkisinden de daha iyi olduğunu biliyorum,' diye düşündü küçük hizmetçi; 'ama keşke Minerva gibi olsaydı.'

Kontesler en alçak reveranslarla ve bir yandan müdahale için, diğer yandan _deshabille_ için özürlerle karşılandılar, böylece gerçekten şefkatli bir kucaklaşmayla bitirdiler, ancak pudraya olan ilgi onu zorunlu olarak biraz teatral hale getirdi.

Bunlar, resmiyet dayanılmaz hale gelmeden hemen önce, en sert günlerdi ve sadelik tepkisi başlamıştı; ve Estelle, ön iltifatlar bitmeden önce yeşil ve sarı ipeklerdeki iki umutsuz düğümü çözmüştü ve Leydi Nithsdale konuya gelmişti.

'Madam _Mösyö son Mari_'ye yeniden katılmak üzere.'

'Ben de o mutluluğa kavuşmak üzereyim.'

'Onu delirtecek kadar cesur olmamın sebebi bu.'

'Bunu söyleme. _Madam la Comtesse_'i görmek her zaman bir zevktir.'

'Ah! Madam, kendisinden büyük bir iyilik istemek olduğunu duyduğunda ne diyecek?'

'Madam ne emrederse bana güvenebilir.'

'Eğer bunu kabul edebilirseniz--oh! Madam,' diye haykırdı İskoç Kontes, hevesle resmiyetini kaybetmeye başlayarak, 'size sonsuza dek
minnettar olacağız ve yaralı bir kalbe şarkı söylettireceksiniz, ayrıca
belki asil bir genç ruhu kurtaracaksınız.'

'Madam, benden ne isteyeceğini duymak için sabırsızlanıyorum,' dedi Fransız Kontes, bir diplomatın karısı olarak biraz daha dikkatli davranarak, George I ile barışın Jakobenler ile savaş anlamına gelebileceğini de hatırladı.

'Lord'umun genç bir akrabasının Madam'a
tanıtılıp
tanıtılmadığını bilmiyorum. Adı Arthur Maxwell Hope; ama biz ona genellikle
Hristiyan adıyla sesleniriz.'

'Uzun boylu, esmer, yakışıklı bir genç, neredeyse bir İspanyol gibi veya Vandyke'nin bir
resmi gibi? Bana öyle geliyor ki onu M. le Comte ile gördüm.' (Madam
de Bourke, Nithsdale gibi bir kelimeye cesaret edemedi.)

'Madam haklı. Çocuğun annesi, Lordumdan çok da uzak olmayan bir kuzen olan Maxwell'dir, ancak onun, yaşlı bir adam olan Sir David Hope'a ikinci eş olarak verilmesini engelleyememiştir. Ona karşı iyi davranmıştır, ancak öldüğünde, ilk eşinden olan oğulları ona ve her zaman kıskandıkları oğluna karşı sert ve kaba davranmışlardır. En büyüğü Lordum Stair'in bir yaratığıydı ve tamamen bir Whig'di; aslında, şu anda Hanover Seçmeni Mahkemesi'nde bir görevde bulunuyor ve _onun_ akranlarından biri olarak yaratıldı. (Nazik Winifred'in bu sözleri söylediği küçümseme görülmeye değerdi ve diğer asil hanım küçük bir alaycı kahkaha attı.) 'Bu üvey kardeşler, Leydi Hope'un genç Arthur'u Muhafazakârlık ve hoşnutsuzlukla beslediğini ilan ettiler ve bunu onu kendisinden ayırma ve onu bir okul işleten ve zavallı çocuğa karşı çok sert ve hatta zalim olan yaşlı bir papaza gönderme
yapmak için bir yalvarış haline getirdiler. Ama ben Madam'ı yoruyorum.'

'Ah hayır, en derin ilgiyle dinliyorum.'

'Sonunda, Kral İskoçya'da beklendiğinde ve insanların zihinleri öfke ve acıyla, umut ve ruhla doluyken, o zamanlar henüz on dört yaşında olan çocuk büyükbabasının Killiecrankie'de savaşmış olmasından övündü ve öğretmenin ihanet olarak nitelediği bir dil kullandı. Cezalandırıldı ve odasına kapatıldı; ama gece
kaçtı ve kraliyet ordusuna katıldı. Kocam onu
gördüğünde üzüldü, ona siyasi görüşlere hakkı olmadığını söyledi ve her şey kaybolmadan önce barışması için onu zamanında eve göndermeye çalıştı. Ne yazık ki hayır.
Küçük adam Preston'dan sağ salim çıktı ama sadece
Lord Mar'a katılmak için. Banff'a binen beyefendiler arasındaydı; ve
Lord'um, Tanrı'nın merhametiyle, Londra Kulesi'nden kaçtığında
ve Paris'e vardığımızda, gördüğümüz ilk kişi neredeyse küçük Arthur'du, onun evde güvende olduğunu düşündük. Onu yanımızda tuttuk ve annesine onun hayatta olduğunu bildirmeyi başardım, çünkü annesi onu öldürülenler arasında
olarak yas tutuyordu.'

'Zavallı anne.'

'Ona acıyabilirsiniz, Madam. Bana yazdığına göre, eğer Arthur, Lord'umun tavsiye ettiği gibi Preston'dan hemen dönmüş olsaydı, her şey bir okul çocuğu eğlencesi olarak
geçersiz kılınacaktı; ve aslında, ona hiç
ulaşılmadı; ancak en büyük kardeşi, Lord Burnside diye çağırdıkları gibi, ailesinden birinin sefere katıldığının veya bizim gibi kötü arkadaşlıklar kurduğunun
bilinmesinden en çok korktuğu şey yoktur. Bu nedenle, onun isteği üzerine, ona asla
Hope demedik, onun vaftiziyle ona ait olan Maxwell ismiyle anılmasına izin verdik; ve
şimdi bana eğer İskoçya'ya gidebilseydi, Paris'ten veya Bar-le-Duc'tan geliyormuş gibi değil, sadece Kıta'da seyahat ediyormuş gibi, kardeşinin onun dönüşüne izin vereceğini söylüyor.'

'Gaspçının yönetimi altında yaşamasına razı olur muydu?'

'Hanımefendi, size gerçeği söylemek gerekirse,' dedi Leydi Nithsdale, 'Leydi Hope, oğlu güvende ve iyi bir çocuk olduğu sürece gaspçıların sorusunu önemseyen biri değil. Hayır, benim açımdan, hepimiz Kraliçe Anne yönetiminde yeterince barışçıl ve mutlu yaşadık; ve duyduğum kadarıyla, Hanover Seçmeni yönetiminde de hala öyle yapıyorlar.'

'Naip onu tanıdı,' diye araya girdi Fransız hanım.

'Pekala,' dedi zavallı sürgün, 'Lord'umun yasal hükümdarının çağrısına uymanın görevi olduğunu hissettiğini ve silaha sarıldığında söylediği gibi, kişinin yalnızca görevini yapıp sonuçlarına katlanabileceğini biliyorum; ama ah! Bunun getirdiği sefalete ve perişanlığa baktığımda, benim kadar mutlu olmayan eşleri düşündüğümde, sevgili Lord'umun sürgünde hayatını tükettiğini gördüğümde ve sevgili yuvamızı ve zavallı halkımızı düşündüğümde, bunun gerçekten bir görev olup olmadığını veya onları terk etmemek için daha kararlı bir amaç olmadan cesur adamları çağırmanın bir hakkı olup olmadığını merak ediyorum!'

'Berwick Dükü önderlik etseydi çok farklı olurdu,' diye gözlemledi Madame de Bourke. 'O zaman kocam giderdi, ama, Fransız tebaası oldukları için, Naip hiçbir harekette bulunmadığı sürece hem onu ​​hem de Dük'ü onurlu tuttu.' Elbette iyi hanım, Mareşal
Dük ve kendi Kontunun zaferi güvence altına alması gerektiğini düşünüyordu; ancak Leydi Nithsdale konunun kendi koluna odaklanmıştı ve 'olabilecek' şeyin peşine düşmedi.

'Sonuçta,' dedi, 'zavallı Arthur, on dört yaşında, gerçek bir
politik inanca sahip olamazdı. Sadece sert muamele gördüğü, büyükbabasının bir hain olarak damgalandığını duyduğu ve ona karşı nazik olan
kocama karşı bir coşku duyduğu için kaçtı. Bu sadece bir çocuk kaçamağıydı ve eğer Lordum ona emrettiğinde
eve dönmüş olsaydı, sadece böyle hatırlanırdı. Şimdi bunu biliyor ve size açıkça söylüyorum, Madam,
sürgündeki sarayımızda gördükleri onun davadaki şevkini artırmadı.'

'Ne yazık ki hayır,' dedi Madam de Bourke. 'Eğer Şövalye de St. George şu ankinden farklı olsaydı, onun adına hareket etmek daha kolay olurdu.'

'Ve siz de benimle aynı fikirdesiniz, Madam,' diye devam etti ziyaretçi, 'bir genç için hiçbir şey
burada, umudumuzun tüm gölgesi entrika içinde,
zorlandığımız hayattan daha kötü veya daha umutsuz olamaz; ve erkeklerimiz için, cinsiyetlerine layık hiçbir meslek. Biz kadınlar,
çocuklarımız ve ev işlerimizle o kadar kötü durumda değiliz; ama
cesur beyefendilerin hayatlarının böyle boşa harcandığını görmek yüreğimi kırıyor. Arthur için elimizden gelenin en iyisini yaptık.
İyi din adamlarımızdan biriyle çalıştı ve Lordum ona
eskrim öğretti; ama artık ona bir çocuk gibi davranamayız ve onu kendi ülkesine geri gönderemezsek
geleceği ne olacak bilmiyorum.'

'Ordumuz,' diye önerdi Madam de Bourke.

'Ah! Ama o Protestan.'

'Bir sapkın!' diye haykırdı kadın, kendini toparlayarak. 'Ama--'

'Ah, beni bu nedenle reddetme. O iyi bir çocuk ve
Katolikler arasında yeterince yaşadı, bu yüzden fikirlerini arka planda tuttu. Ama sen
anlıyorsun ki, onu İskoçya'ya değilse bile, İsveç veya Prusya gibi, inancının terfisine engel olmayacağı bir ülkeye götürmek istemenin başka bir nedeni daha var.'

'Ne yapmamı istiyorsun?' dedi Madam de Bourke, daha soğuk bir şekilde.

'Madam, Büyükelçi'nin maiyetine katılmak üzereyken pasaportuna dahil edilmesine izin verse ve böylece onu İsveç'e götürse; Leydi Hope
oradan onunla iletişim kurmanın bir yolunu bulsa, zavallı genç adam
mahvolmuş bir kariyerden kurtulurdu ve dul eşinin ve annesinin kalbi seni sonsuza dek kutsardı.

Madam de Bourke duygulandı, ama ihtiyatlı bir kadındı ve genç adamın, Leydi Nithsdale'in onu
uzaklaştırmak istediği bir ayartmaya
meyip yönelmediğini sormak için durakladı.

'Ah hayır,' diye cevapladı; 'o gayet iyi uysal bir çocuktu, ama yüksek ruhluydu, Kont'a itaatkardı ve küçük kızlarına karşı nazik bir oyun arkadaşıydı; gençliğinde bir çocukça 
aptallık sonucu böyle mahsur kalmasını bu kadar talihsiz kılan şey onun mükemmelliğiydi.'

Kontes pes etmeye başladı. Lord'unun sekreteri olarak gidebileceğini düşündü ve eğer cesur bir genç adamsa, kayınbiraderi Rahip dışında sadece iki kişiden oluşan küçük refakatçisine bir ek olacağını kabul etti; Rahip, genç yeğeni kadar önemsizdi. 'Ama sizi uyarmalıyım, Madam,' diye ekledi Madam de Bourke, 'bu çok tehlikeli bir yolculuk olabilir. Sana aitim, zavallı anneme söylemesem de, bunu düşündüğümde kalbimin beni terk ettiğini ve babalarının kesin emirleri olmasa zavallı çocuklarımı riske atmam.'

'İsveç'i neşeli ve hoş bir meskenden başka bir şey bulacağını sanmıyorum,' dedi Leydi Nithsdale.

'Ah! Keşke sadece İsveç'te olsaydık ya da kocamla birlikte olsaydık, her şey yoluna girecekti!'
diye cevapladı diğer hanım; 'ama dağlardan geçmemiz gerekiyor ve
Katalanlar bize Fransızlara karşı her zaman kötü davranıyorlar.'

'Hayır; ama siz bir grup kadınsınız ve bir elçiye bağlısınız!' oldu cevap.

'Bunlar ne umurunda? Hepimiz onlar için daha iyi bir avız! İspanyolların zulmü ve kanunsuzluğuyla ilgili hikayeler duydum ki
bu sizi ürpertir! Kocamın mektubunu aldığımdan beri
beni rahatsız eden korkunç önsezileri tahmin edemezsiniz.'

'Her yerde tehlike var, sevgili dostum,' dedi Leydi Nithsdale nazikçe;
'ama Tanrı her şeyin içinden bizim için bir yol bulur.'

'Ah! Bunu deneyimledin,' dedi Madam de Bourke. 'Hadi konuya geçelim. Sadece sana gerçeği söylemek istedim.'

Leydi Nithsdale, himayesindeki kişinin cesaretine karşılık verdi ve ayrıca o akşam Kont tarafından, Madam de Varennes'in kızının adına düzenleyeceği ve pasaportta hangi sıfatla yer alacağı belirlenebilecek veda resepsiyonunda kendisine takdim edilmesi kararlaştırıldı.

Tüm kulaklarıyla dinleyen ve Fenelon'un romanında Arthur Hope tarafından temsil edilecek bir karakter bulmaya çalışan Estelle, şimdi daha fazla, grubun güneye, Akdeniz limanlarından birinde babasıyla buluşmak üzere gideceğini, çünkü İngiliz Hükümeti'nin Jakobenlerden o kadar şüphelendiğini, deniz yoluyla doğrudan rotayı izlemeye cesaret edemediğini, bunun yerine Almanya'dan geçmeyi planladığını duydu. Madame de Bourke, Avignon'da kardeşiyle buluşmayı ve sonraki rotası hakkında ondan tavsiye almayı umuyordu. Estelle bunu büyük bir memnuniyetle duydu. 'Akdeniz'e gideceğiz ve tehlikede olacağız,' dedi kendi kendine, Telemak'ının başındaki haritayı açarak; 'Bu kesinlikle doğru! Belki de Calypso'nun adasını
göreceğiz.'

O akşam Londra Kulesi'nden kaçışın kahramanını ve kendisi için belirlenen seyahat arkadaşını görmek için ayağa kalkmak için çok yalvardı ve başardı, çünkü annesi bütün gün boyunca çok akıllı ve makul davrandığını söyledi ve ondan ayrılmak üzere olan büyükanne ona hiçbir şeyi reddedemezdi. Bu yüzden tam giyinmişti, saçları kıvrıktı ve yaşlı kadının ziyaretçilerini karşılamak için oturduğu yüksek arkalıklı sandalyenin yanında durmasına izin verildi.

Marquise de Varennes, keskin gözlere ve bir tür tavır parıltısına ve insanları rahatlatma gücüne sahip, küçük, solgun bir kadındı; bu da onu yaşlandıkça daha da çekici kılıyordu. Deneyimli bir göz, Louis XIV'ün, kızının giymek zorunda olduğu başlıklardan daha düşük yükseklikte başlıklar giydiği dönemin kostümünü koruduğunu fark edebilirdi. O yoğun günün son iki ölümlü saatinde zavallı Madame de Bourke, macun, pudra ve benzeri şeylerle orijinal bir tasarım oluşturan kuaförün ellerinin altında oturmak zorunda kalmıştı; yani karla kaplı ağaçlar, kar yığınları, elmas buz sarkıtları ve hatta buz tutmuş bir derenin yanında bir kulübe. Zaman ayıramadı ve mazur görülmeyi özledi; ancak sanatçı, bu son kez Madame l'Ambassadrice'e katılması için parlak ve eşsiz fikrini gerçekleştirmesine izin verilmesi için o kadar çok yalvarmıştı ki, ona karşı koymak mümkün değildi ve belki de garip önsezileri zavallı adama hayal kırıklığı yaşatmak için onu daha az istekli hale getirmişti. Kuaförün parmaklarının altında hareketsizce otururken, kafasının dışında biriken kibir dokusunu, içindeki melankolik hislerle karşılaştırmak garip olurdu; ancak sonunda kendini minnettar bir şekilde gülümsemek ve kendisini taçlandıran canavarlığa duyulan hayranlığı göstermek için ayağa kalktı. Hoşgörü ve Hristiyan sabrı, Louis XV tarzında bir tuvalette bile uygulanabilir. Uzun süreli pratik, ona
dolaşma, oturma, ayağa kalkma ve reverans yapma,
yapıya zarar vermeden veya komşularına veya giydiği
zengin çiçekli beyaz brokarlara pudra verme olanağı sağladı; bu arada, birbiri ardına, daha da muhteşem bir şekilde giyinmiş hanımların ve altın dantellerle, zarif kumaştan kravatlarla ve elmas ayakkabı tokalarıyla süslenmiş kadife ceketli beyefendilerin iltifatlarını aldı.

Phelim Burke, diğer adıyla l'Abbe de St. Eudoce, onun yanında duruyordu.
Zayıf, sarı ve çilli bir gençti, kumral saçları ve tipik İrlandalı özellikleri vardı, ancak onların şakacılığı yoktu ve yüzü, bir Paris salonunda ipek bir _soutane_'in üstünden ziyade, bir kulübede yarı aç, yarı giyinik bir gossoon'dan beklenebilecek gibiydi; ancak arkadaşları tarafından nazikçe
başvurulduğu zaman hoş bir gülümsemesi oluyordu.

Hemen Leydi Nithsdale, uzun boylu, ciddi bir beyefendi eşliğinde yaklaştı ve yanlarında daha da uzun boylu, en dik sırtlı ve en uzun bacaklı bir genç getirdi. Bu genç, oturtulduğunda omurgasının ucundan bir yay gibi görünüyordu, tıpkı Estelle'in oturtulduğunda yakındığı Hollanda eklemli bebeği gibi. Dahası, orada bulunan diğer beyefendilerden daha bakımsız giyinmişti, ceketinde ve ipek çoraplarında genel olarak küçük bir görünüm vardı; ve bunlar bir Kontesin elinden çıkmış olsa da, zarafetlerine bir şey katmıyordu. Ve bir koçbaşı veya bir nöbetçi kadar dik durduğu için, Estelle'in iyi yetiştirilmişliği tamamen devreye girdi ve annesinin kalbi titredi ve kendi kendine, 'Büyük, ham bir İskoç! Onunla ne yapılabilir?' dedi. Lord Nithsdale onun adına konuştu, sekreter olarak gitmesinin daha iyi olacağını düşündü ve
iyi kalitede bir el yazısı gösterdi. 'Herhangi bir dil biliyor muydu?'
'Fransızca, İngilizce, Latince ve biraz da Yunanca.' 'Ve, Madam,' diye ekledi Lord Nithsdale, 'sadece Fransızcası benimkinden çok daha iyi olmakla kalmıyor,
eğer çocuk ağzını açmaya cesaret ederse duyarsınız, ayrıca bizim geniş İskoç viskimiz İsveççeye o kadar benziyor ki neredeyse orada tercümanlık yapacak.'

Madam de Bourke ne kadar umutsuz hissetse de gülümsedi ve bunu duyduğunda
sevindiğini söyledi ve ayrıca on sekiz yaşında, İskoç doğumlu Arthur Maxwell Hope'un, Büyükelçinin evinden pasaport talep ettiği kişiler arasında anılmasına karar verildi. Onun pozisyonu bunu
zorluk olmaktan çıkardı ve yerel yetkililere tam gerçeği vermek daha akıllıcaydı; ancak Lord Burnside'ın kardeşinin Jacobite Kontu de Bourke'un maiyetinde olduğunun İngiliz Hükümeti'ne bildirilmemesi arzu edilir olduğundan, halk tarafından yalnızca ilk adıyla bilinmesi gerekiyordu ve bu da Fransız dudaklarında Maxwell veya Hope'tan çok daha zor değildi.

'Uzun boylu, siyah ve beceriksiz,' dedi Estelle, kardeşine onu tarif ederken. 'Ondan hoşlanmayacağım - ona Arthur yerine Phalante diyeceğim.'

'Arthur,' dedi Ulysse; 'Kral Arthur bir kargaya dönüştü!'

'Bu Arthur bir kargaya benziyor - yırtık tüyleri olan büyük, siyah, zayıf bir karga.'

BÖLÜM III--RHONE ÜZERİNE

'Gündüzün açılan gözü daha güzel manzaraları nadiren görebilir,
Daha güzel bir manzaraya bakmaz

Rhone'un hoş kıyılarından.'

BAŞPİSKOPOS TRENCH.

Uzun bacaklar soyut olarak bir avantaj olabilir, ancak Fransa'da _une grande Berline_ denilen yerde pek de öyle değil. Bu, on sekizinci yüzyılın en sevilen seyahat arabasıydı ve bagaj için üstte düzenlemeler bulunan, yakın bir arabadan veya faytondan oluşuyordu ve arkasında büyük bir deri başlıkla donatılmış açık bir koltuk ve önünde arabacı ve arkadaşları için başka bir yer vardı. Her koltuk üç kişiyi alabilecek kadar genişti ve böylece içeride kayınbiraderi Madame de Bourke, iki çocuğu Arthur Hope ve Kontes'in _femme de
chambre_'ı olan zanaatkar sınıfından yaşlı bir kadın olan Mademoiselle Julienne oturuyordu. Çocukların hizmetçisi olan Victorine,
iki hizmetçiyle birlikte kaputun altında seyahat edecekti; ve ön koltuk
arabacı Laurence Callaghan--diğer adıyla La Jeunesse--ve _maitre d'hotel_ Maitre Hebert tarafından işgal edilecekti. Arthur, zihin ve bedenin rahatlığı ve konforu açısından onların yüceliğini paylaşmak isterdi ve
Kontes'in istekleri de aynı şekilde olabilirdi; ama bunun dışında onu hizmetçilerle aynı sınıfa koymak bir hakaret olurdu, kendi arabacıları tarafından sürülen ev kuruluşunun atları, partiyi Paris'ten ilk etapta götürdü; ve daha sonra postacı atları veya katırları, altı tane, kendi postacıları tarafından sürülse de, dışarıda üçüncü bir kişi için çok az veya hiç yer kalmayacak kadar çok bagaj vardı.

Arabanın dolu olduğunu görmek mükemmel bir görüntüydü; Arthur, Lord Nithsdale'in konvoyuyla Hotel de Varennes'in avlusuna vardığında. Madame de Bourke, bir elçinin tüm eşyalarını yanında götürüyordu -koltuğun altına yerleştirilmiş kocaman bir sandıkta bir tabak takımı,
elmaslarla süslenmiş altın bir çerçeve içinde Philip V.'in bir portresi,
mücevherleri arasındaydı- ve yanında duran Lord Nithsdale, kuru bir şekilde, 'Bizim getirdiğimizden fazlası var, Arthur,' demekten kendini alamadı.

İkisi birlikte avluda aşağı yukarı yürüdüler,
çok iyi bildikleri gibi, gözyaşlarıyla sel gibi akacak olan
ayrılığa müdahale etmek istemediler.
Gerçekten yeterince üzücüydü, çünkü Madame de Varennes yaşlanmıştı ve
kızı yalnızca ondan değil, aynı zamanda bebek Jacques'tan da bilinmeyen bir süre için ayrılmak zorundaydı; ancak birbirleri uğruna duydukları kederin kendine hakim olma ve dizginleme yeteneği kesinlikle bilinmiyordu. Mümkün olduğunca çok ağlamak bir onur ve duygu meselesiydi ve öncesinde bir gün boyunca, sonrasında ise en az iki gün boyunca çok fazla ağlamamak,
yemek yememek veya konuşmamak soğuk ve doğal olmayan bir davranış olarak kabul edilirdi.

Bu yüzden yolcular yerlerine oturmak için merdivenlerden indiklerinde, her yüz bir mendille sarılmıştı ve tutkulu kucaklaşmalar, göğsün tam anlamıyla bastırılması ve her kurban birbiri ardına vagon basamaklarını çıkıp koltuğa düşerken şiddetli hıçkırıklar duyuluyordu;
arka planda ise Honor Callaghan, Rahip ve Laurence'a İrlandalı ağıtlar
diyordu ve bu acıklı ses küçük kucak köpeğini ve büyük bekçi köpeğini koro halinde uluyordu. Arthur Hope, muhtemelen arkadaşı ve kahramanından ayrılırken onlardan herhangi biri kadar perişandı, sadece bir kazık gibi duruyordu, hem de utanmış bir kazık (eğer bu mümkünse)
ve Lord Nithsdale, onun için endişeli olsa da, içtenlikle herkese acısa da, yine de Lance ve köpeğiyle ilgili tuhaf bir anı tarafından rahatsız ediliyordu ve Fransız köpeklerinin sempatiden yoksun olmadığını ve Yengeç rolünün Arthur'a bırakıldığını düşünüyordu.

Ancak, son kucaklaşma gerçekleşti ve hanımlar hepsi içeri tıkıldı,
göğsü hıçkırıklarla inip kalkan Rahip, bir elinde büyük şapkası, diğer elinde kocaman bir ipek mendille, görgü kurallarını unutmadı, ancak Arthur'a önce merdivenleri çıkması için el salladı. 'Sekreter, misafir değil. Bunu başka bir zaman hatırlamalısın,' dedi Lord Nithsdale. 'Tanrı seni korusun, sevgili oğlum ve seni güzel İskoçya'ya sağ salim geri getirsin, gerçek ve sadık bir kalp.'

Arthur arkadaşının elini bir kez daha sıktı ve
araçta kayboldu; Dadı Honor bir kez daha koştu ve arabaya
binen Abbe Phelim'e bir kez daha 'Ohone' dedi; Abbe Phelim de onu takip etti; kapı kapalıydı; locaya
çıktığında 'Lanty, kalbimin güneş ışığı' için son bir ağıt duyuldu; koşum takımı şıngırdadı; arabacı ve postacılar
kırbaçlarını şaklattılar, sabırsız atlar _porte cochere_'e doğru koştular; ve
Arthur, bacaklarını dağıtmaya çalıştıktan sonra etrafına baktı ve
karşısında, Madame de Bourke'un köşede keder içinde yattığını, bir kolunu kızının omzuna attığını ve küçük oğlunun da
kucağında yattığını, ikisinin de hıçkırarak ağladığını gördü; ve bir tarafında Abbe, köşesine çökmüş, sarı ipek mendili yüzünde; diğer tarafında ise, o da ağlıyordu ama daha ılımlı bir şekilde, belki de daha çok nezaketten veya enfeksiyondan dolayı, gerçek bir kederden
çok: her neyse, herkesten daha fazla duyusu vardı ve yolcuların ardından atılan çeşitli gevşek eşyaları ceplerine ve yastıkların altına atmayı başardı. Arthur yardım etmek isterdi ama sadece çeşitli ayak parmaklarına basmayı ve birkaç küçük çığlık atmayı başardı, bu da onu daha da rahatsız etti ve Mademoiselle Julienne'in ona hançer gibi bakmasına neden oldu, küçük Ulysse'yi hanımına teslim ederken, onu kendi dizinin üzerine kaldırdı ve orada, ağlamaktan
tamamen bitkin olduğu için uykuya daldı.

Arthur diğerlerinin de aynısını yapmasını umuyordu ve belki de itiraf ettiklerinden daha fazla uyuklama vardı; ama ne zaman bir hareket olsa,
ve Paris sokaklarında tanıdık bir nesne
Madam, Rahip veya Estelle'in gözüne çarpsa, küçük bir çığlık duyulur ve
yeni bir skorla
başlarlar.

'Zavallı, zavallı yaratıklar!' diye kendi kendine söyledi, kahramanlıklarıyla
övündüğü İskoç kahraman kadınların geleneklerini düşünürken. Ve
yine de yanılıyordu: Madam de Bourke, Kanal'ın diğer tarafındaki hanımlar kadar kararlı bir özveride bulunma yeteneğine sahipti, ancak
gözyaşları
zamanın gerektirdiği bir haraçtı. Bu yüzden onlara yol verdi--tıpkı
şüphesiz eski günlerin kadınlarının onları şişelemekte saçma bir şey görmediği gibi.

Arthur'un tüm bu ağlayan figürler arasındaki konumu son derece garipti,
özellikle de kılıcını bacaklarının arasında dik bir şekilde taşıyordu,
silahlara ayrılmış kılıç kutusuna atmak için gözyaşlı topluluğu yeterince rahatsız etmeye cesaret edemiyordu. Lord Nithsdale'in kendisine verdiği küçük cep Virgil'i çıkarıp gözlerini biraz meşgul etmek istedi, ama kaba olarak düşünülmemek için buna cesaret edemedi, ta ki atları sulamak için bir kabarede mola verdiğinde, bir saatin vuruşu Rahip'e Saatleri okuma vaktinin geldiğini hatırlatana kadar ve dua kitabı çıkarıldığında, Arthur kitabının da onunla birlikte gelebileceğini düşündü.

Ara sıra Alice Bourke'un rahibe manastırının bulunduğu Corbeil'de mola verildi, kardeşi ve yengesi ona veda edecekti. Çocuklarla birlikte oraya bırakıldılar, Arthur ise araba ve hizmetçilerle birlikte hana yemek yemeye gitti. Ulysse'nin manastıra ilk ziyaretiydi ve teyzesinin kukuletalı yüzünü bir parmaklıktan dikizlerken çok şaşırmıştı. Ancak, aile yemekhanede yemek yemeye kabul edildi; ancak zavallı Madame de Bourke, kayınbiraderi Soeur Ste. Madeleine'in şefkatle eşlik ettiği bir yatakta yatmaktan başka bir şeye uygun değildi. 

'Ah, kızkardeşim, kızkardeşim,' diye haykırdı, 'Sana söylemeliyim ki -zavallı anneme söylemek istemiyorum-
onu bir daha asla göremeyeceğime dair en korkunç önsezilerim var, zavallı çocuğumu da. Hayır, kocamı da; o korkunç İspanya'ya gitmek için benden ayrıldığında bunu biliyordum.' 

'Yine de görüyorsun ki o güvende ve sen onunla olacaksın, kızkardeşim,' diye karşılık verdi rahibe. 

'Ah! Bunu bilseydim! Ama o korkak Pireneleri ve onları istila eden haydutları ve yanımızda taşıdığımız tüm değerli eşyaları düşünün!'

'Kesinlikle Mareşal Berwick'in size bir refakatçi teklif ettiğini duydum.'

'Bu sadece haydutların dikkatini çekecek ve onları daha fazla
güçle getirecek. Ah kız kardeşim, kız kardeşim, zavallı çocuklarımın o vahşilerin
elinde olduğunu düşününce yüreğim çöküyor! Her gece onları
düşünüyorum.'

'Bir elçinin maiyeti kutsaldır.'

'Ah! Ama onlar bunu ne umursar, soyguncular? Yıkımın
orada olduğunu biliyorum!'

'Hayır, kız kardeşim, bu sana benzemiyor. Ulick'i takip etmek zorunda kaldığında her zaman cesurdun ve
cennete güvendin.'

'Ah! Zavallı çocuklarımdan
kopacağımı ve ona asla tekrar katılamayacağımı söyleyen bu yüreğim çökmedi.'

Rahibe Ste. Madeleine zavallı kadını okşadı ve onunla dua etti ve onu rahatlatmak ve teselli etmek için elinden geleni yaptı, güvenli yolculuğu ve kocasıyla buluşması için bir _neuvaine_ sözü verdi.

'Çocuklar için,' dedi zavallı Kontes. 'Onu bir daha asla göremeyeceğimi biliyorum.'

Ancak, parlak İrlandalı kadının neşesi ona biraz iyi gelmişti ve yolculuğuna devam etmek için ayağa kalktığında daha iyiydi.
Estelle ve Ulysse rahibeler tarafından çok sevilmişlerdi ve hepsi tekrar bir araya geldiklerinde, Arthur'un büyük rahatlamasıyla, sürekli ağlamanın _zorunlu_ olmadığını gördü. Tekrar içeri girdiklerinde, kılıcından kurtulabildi ve sadece iki çift ayak parmağına bastı ve bacakları iki kez devrildi.

Dahası, Madame de Bourke güzel konuşmalar yapma yeteneğini yeniden kazanmıştı ve silah kılıç kutusuna konduğunda, üzgün bir gülümsemeyle, 'Ah, Mösyö! Sizi savunucumuz olarak görüyoruz!' dedi. 

'Ben de!' diye bağırdı küçük Ulysse, minik bıçağıyla şiddetli bir gösteri yaparak ve amcasının gözünü neredeyse çıkaracakmış gibi,
bu eşya 'Mösyö Arture'ninkiyle' aynı saklanma yerine
gönderildi ve çocuğa bunun erkekliğinin bir kanıtı olduğundan emin olundu. 

Moralini tamamen yerine getirmişti ve annesiyle kız kardeşi hala ağlamaktan bitkin olduklarından, Arthur cesaretini toplayıp ona dizinin üstüne bir tünek teklif edip, pencereden dışarı bakmasına izin verene ve küçük Parisli çocuk için
tamamen yeni olan şeyleri açıklayana kadar onunla başa çıkmak kolay değildi. Neyse ki Fransızcayı iyi konuşuyordu, neredeyse hiç yabancı aksanı yoktu ve küçük adamın hevesli sorularına verdiği cevaplar, 'Ülkemde ne yapıyorlar' hakkındaki gözlemlerle serpiştirilmişti, Ulysse'i meşgul etmekle kalmadı, Estelle'in dikkatini çekti, ancak o çok yorgun ve uyuşuktu ve belki de çocuk olduğu için, ilgisini göstermek için sempati gereksinimlerine çok fazla bağlıydı, ancak dinlemek için yeterince yaklaşmak dışında. O akşam, grup, Fransa nehirlerini birbirine bağlayan ve onları Loire'a ve oradan da Rhone'a götürecek olan kanallardan birinin kıyısına, _coche d'eau_ adı verilen, yolcuların oldukça rahat edebileceği kabinleri, berlin'in arkada istiflenebileceği alanı ve yolcuların eğlenebileceği tenteli bir güvertesi olan büyük, düz tabanlı bir mavnayla ulaştı. Sully'den Devrim'e kadar, bu, özellikle Fransa'nın güneyinde, açık ara en
uygun ve güvenli ulaşım şekliydi. Bourke ekibi için çok uygundu; kısa süre sonra güverteye yerleştiler. Kadının elbisesi Paris'in tam kostümünden daha çok seyahate uygundu. Onun _en
Amazone_ dediği şeydi -- yani, maviye bakan, kısa etekli, açık ceket ve yelekli, bir erkek gibi, pudralanmamış ve arkadan bağlanmış saçlar ve büyük, gölgeli tüylü bir şapka. Estelle bunun bir minyatürünü giydi ve Paris hayatının balina kemiği sertliğinden kurtulduğu için sevindi, kardeşiyle güvertede periler gibi zıpladı, dedi Lanty, ya da onun tercih ettiği şekilde 'bir peri gibi.'

{The cohe d'eau: p40.jpg}

Su arabası sadece gündüzleri hareket ediyordu ve yorgun grubu buluşma yerine getiren kişi gelmeden önce çoktan
varmıştı - yüksek bir çatısı ve iniş yerine kadar uzanan kafesli bir geçidi olan pitoresk bir su kenarı hanı, olgun üzüm salkımlarıyla
örtülü.

Burada yolcular omlet ve _vin ordinaire_ ile akşam yemeği yediler ve
yatağa gittiler - Madam ve çocuğu bir yatakta, hizmetçiler yerde,
diğer odada Rahip ve sekreter, her biri bir _grabat_'ta, iki erkek hizmetçi de aynı şekilde yerde. On sekizinci yüzyılın mahremiyeti böyleydi ve Arthur, kendine hizmet etmeye alışkındı, Rahip'i sadık üvey kardeşinin ellerinde bir bebek gibi görünce hayretle baktı, Rahip sürekli İrlandaca-İngilizce ve Fransızca'nın tuhaf bir karışımıyla konuşuyordu, ta ki diz çöküp Latince dualarını birlikte söyleyene kadar, Arthur Protestan kulaklarını özenle kapattı. Ertesi sabah erkenden aile gemiye bindi, araba çoktan gemiye binmişti; ve yolculuk, çoğunlukla akıntıyla sürüklenerek, neredeyse düşsel bir şekilde yavaşça süzülürken çok keyifli hale geldi, ancak birkaç at, suyun daha durgun olduğu yerlerde, ihtiyaç halinde, kıyıda bir iple mavnayı çekiyordu, ancak Akdeniz'e doğru inişte hiçbir şey eksik değildi. Konaklama çok üst düzey değildi, ancak iyi bir hanın yakınında bir mola verildiğinde, Madame de Bourke ve çocuklar geceyi geçirmek için karaya çıkıyorlardı. Ve erken sonbaharın güzel günlerinde güverte keyifliydi ve gemiye getirilen erzaklarla orada yemek yemek Estelle ve Ulysse için sürekli bir ziyafetti.

Hava güzeldi ve güzel manzaraların ve sahnelerin sürekli bir panoraması vardı. Önce hasat, çocuklar için
tamamen yeni bir manzara ve sonra, daha güneye doğru gittikçe, bağ bozumu. Rhone'un hoş kıyılarında kayarken güzellik harikaydı.

Yamaçlardaki asma katları çoğunlukla frenk üzümü çalıları gibi kesilmiş ve budanmıştı ve kafeslerde çelenkler bekleyen Arthur'u hayal kırıklığına uğrattı.
Ama bu güzelliğin özel zamanıydı.
Pitoresk kostümler içindeki tüm nüfus, salkımlarla büyük sepetleri dolduruyordu ve neşeli şarkılarından parçalar, sessizce
sürünürken _coche d'eau_'ya doğru
çınlıyordu. Akşama doğru, başlarında yığılmış sepetlerle veya aralarında taşınan gruplar görüldü, asmalarla taçlandırılmış gençler ve kızlar, küçük Baküsçüler gibi dans eden yarı çıplak çocuklar, Arthur'da klasik anılar uyandırdı ve çocukları sevindirdi.

Zavallı Madame de Bourke hala çok depresifti ve çocuklarının bir ihtiyacı, bir soru veya hayranlığını kazanmak için bir ricayla uyandırılmadığı sürece günün yarısını hayal kurarak geçirirdi. Bunun dışında, kale, manastır veya kilisenin yüksek kuleleriyle, yangın söndürücüyle kapatılmış, güzel yükseklikleri, nehrin berrak kıyıları, güzel dönüşler, ağaçların arasında beyaz parıldayan küçük köyler ve kasabalar gözlerinin önünden görünmez bir şekilde geçiyordu ve çocuklar ona babalarını görmeden önce kaç gün daha bekleyeceklerini sorduğunda ürperdiği görülebilirdi. Rahat bir zihne sahip bir gözlemci, Rosette ve Babette adlı iki hizmetçinin, tek uşağı Laurence'a gösterdikleri
havalar ve zarafetle çok eğlenebilirdi; çünkü Maitre Hebert, onların küçük cilveleri için çok uzak ve yaşlı bir kişiydi. Rosette küçük korkularla uğraşırdı ve eğer yakınlardaysa, onun eli olmadan bir tahtanın üzerinden geçmeye cesaret edemezdi, ormanda kurtların uluduğunu duyduğundan ve her köylünün '_ce barbare_' olduğundan emindi; ihtiyaç halinde Maitre Hebert ile birlikte aşçılık yapan Babette ise ona, dilencilere veya atlara bakan zayıf ve aç çocuklara bahşetmeye çok meyilli olduğu
zarif lokmalar verirdi. Öte yandan, üçünün arasında en güzeli ve en canlı olanı olan Victorine, ona ve onun ilgilerine karşı en büyük kayıtsızlığı gösteriyordu ve ona nazik bir söz söylemeye veya ara sıra getirdiği peygamber çiçeklerini ve geç gülleri kabul etmeye bile tenezzül etmiyordu. 'Sadece yabani otlar,' dedi. Ve ona getirdiği üzümler ve Kraliçe Claude erikleri her zaman ekşiydi. Yine de, küçük, düzgün önlüğünün üzerinden sık sık koyu mavi bir şey görülebilirdi.

Lanty'nin bu şekilde eğlenmek için fazla zamanı yoktu, çünkü
Rahip onun bakımıydı ve yan taraftan balık tutmak için kendi
düzenlediği bir oltayla gayet mutluydu. Küçük Ulysse de elbette aynı taklidi yaptı ve oltasını bir saat boyunca sallandırdı. Estelle
aynısını yapmak isterdi, ancak annesi ve Mademoiselle Julienne
bu sporun bir _demoiselle_ için _uygun_ olmadığını düşündüler. Arthur
bir veya iki kez Rahip'in sopasını denemeye ikna edildi, ancak onu çocuğunki kadar basit bir
oyuncak buldu; ve onu fırlatma eylemi bile kalbini
çocukluğundaki 'yanıklarda ödeme' ile karşılaştırıldığında o kadar hasta etti ki, ne yavaş kanalda ne de genişleyen nehirde denemeye devam etme eğilimi yoktu.

Kontes'e karşı hala çok utangaçtı, Kontes onu rahatlatacak ruh halinde değildi; ve Rahip onu şaşırttı, deneyimsiz yabancılar kabul edilmemiş eksikliklerle karşılaştıklarında sıklıkla olduğu gibi. La Jeunesse'in genç din adamıyla sürekli
sohbeti ve gizlenmemiş samimiyeti, genç İskoç zihninin biraz kibirli yapısına pek de uygun görünmüyordu ve mesafeli duruyordu; ancak iki çocukla oldukça rahattı ve aslında onların en büyük kaynağıydı.

Ulysse'nin oltasını yaptı, yemledi ve onu kullandığında çocuğu tuttu - hatta bir keresinde onunla minik bir balık bile yakaladı, her iki çocuğun da coşkulu acısına.
Onlarla sessiz oyunlar oynadı ve onlara hikayeler anlattı - Estelle ile Telemaque hakkında sohbet etti veya ona tek kitabından, yani Robinson Crusoe'dan okudu - okuldan kaçtığında cebinde taşıdığı ve neredeyse ezbere bildiği, kenarları neredeyse silinmiş, soluk puntolu küçük siyah bir kopya.

Estelle buna çok ilgi duyuyordu ve Calypso'nun adasını mı yoksa Crusoe'nun adasını mı tercih etmesi gerektiği konusunda fikir ayrılıkları yaşıyordu. Bir asır sonra, Bay Robinson'a nezaket gereği '_ce bon Vendredi_' hakkında soru sorduğunda, bunu da aynı ölçüde gerçek olarak kabul etti.

Cuma'yı perilerden daha çok tercih etmesi gerektiğini düşünmeye meyilliydi.

'Bir sürü sorunlu kadın,' dedi Arthur, henüz yiğitlik yaşına gelmemişti.

'Orada asla kalmazsın!' dedi Estelle; 'Bizi Mentor gibi kayanın üzerinden itersin. Sanırım sen bizim Mentor'umuzsun, çünkü eminim bize çok şey anlatıyorsun ve azarlamıyorsun.'

'Mentor huysuz bir ihtiyardı,' dedi Ulysse.

Estelle buna bir tanrıça olduğunu söyledi; ve Arthur çok kararlı bir şekilde
her iki karakteri de reddetti, özellikle de kayaları iterek. Ve böylece
kayarak ilerlediler, ipek endüstrisinin merkezi olan büyük, yoğun, şaşırtıcı
Lyon şehrinde bir gece geçirdiler; ancak
şehitliklerin tapınağı olarak gezginler için daha ilginçti. Arthur hariç hepsi
Katedral'de dua etmeye gitti. Kilise mimarisine veya ilkel tarihe kulak verme zamanı gelmemişti; ve o sadece dar, eğri büğrü sokaklarda dolaşıyor, pazar ürünlerinin oyuncak yığınlarına bakıyor ve
mal tezgahlarına bakıyordu, ama satın alamayan biri gibi. Annesi
gerçekten de ona yirmi gine göndermeyi başarmıştı, ama o acil durumlarda onları iyi idare etmesi gerektiğini biliyordu ve Leydi Nithsdale
bir tanesi hariç hepsini, giysilerinin altına taktığı bir kemerle dikmişti.

Grup dışarı çıktığında Katedralin önüne varmıştı.
Madame de Bourke ağlıyordu, ama onu daha önce hiç görmediği kadar huzurlu görünüyordu ve Estelle çok heyecanlıydı. Küçük bir kitap almıştı, Mentorunun onunla okumasında ısrar ediyordu, ama Protestan duyguları geri çekiliyordu.

'Ah!' dedi Estelle, 'ama sen Hristiyan değilsin.'

'Evet, gerçekten, Mademoiselle.'

'Ve bunlar Hıristiyan inancı için öldüler. Biliyor musun, annem orada dua etmenin onu rahatlattığını söyledi; çünkü ne olursa olsun, iyi Tanrı'nın bizi güçlü kılacağından emindi, tıpkı kızgın sandalyede oturan genç kızı yaptığı gibi. Resmini gördük ve korkunçtu. Onun hakkında okuyun,
Mösyö Arture.'

Okudular ve Arthur, bunun batıl inanç ve bölünme günlerinden çok önce, Hıristiyan gerçeği için mücadele eden şehitlerin ölümünün basit ilkel anlatısı olduğunu algılayacak kadar dürüsttü.
Estelle'in yüzü coşkuyla aydınlandı.

'Şehit olmak asil değil mi?' diye sordu.

'Ah!' diye haykırdı Ulysse; 'kızgın bir sandalyede oturmak! Bir kayadan atılmaktan
daha kötü olurdu! Ama günümüzde şehit yok,
kardeşim?' diye ekledi, sanki korunmak ister gibi Arthur'a doğru sokularak.

'Hak uğruna ölenler var,' dedi Arthur, Jacobite gözünde bir şehit olan Lord Derwentwater'ı düşünerek.

'Ve iyi Tanrı onları güçlü kılar,' dedi Estelle, alçak bir sesle.
'Annem bana, ne kadar yakında yargılanacağımızı kimsenin bilemeyeceğini ve Aziz Blandina kadar cesur olmamız için dua etmem gerektiğini söyledi! Sevgili babama giderken bize neyin zarar verebileceğini düşünüyorsunuz, Mösyö?'

Abbe'nin arkasından cevap veren, olta balıkçılığıyla uğraştığı Lanty'ydi. 'Arrah, o zaman hiçbir şey, Mademoiselle.
Dünyanın dört bir yanındaki hiçbir şey, Lanty Callaghan ön planda olduğu sürece, senin mübarek küçük başının bir buklesine zarar veremez.'

'Ah! Ama sen Tanrı değilsin, Lanty,' dedi Estelle ciddi bir şekilde; 'olayların olmasını engelleyemezsin.'

'Güçler böyle bir küfür etmemi yasaklıyor!' dedi Lanty, şapkasını çıkararak. 'Benim demek istediğim bu değildi, sadece zavallı Lanty'nin on bin kez öleceğiydi -hayvanlara atılanlardan daha kötü- onlardan biri senin o küçük parmağının ucuna zarar vermeden önce!' 

Belki de Arthur'un kalbinde aynı yemin vardı, ama bu kadar güçlü ifadelerle söylenmemişti. 

Böylece eski Avignon şehri gezginlerin gözlerinde yükselene kadar sürüklendiler, devasa evlerin, avluların etrafına inşa edilmiş, az sayıda dış penceresi olan, bunların bir zamanlar İtalyan şehir kan davalarına alışkın kardinallerin sarayları olduğunu hatırlatan karanlık bir bina yığını. 
Bunlar her evi bir kaleye dönüştürüyordu. 

Rıhtımda mavi ve altın rengi muhteşem bir üniforma giymiş bir beyefendi duruyordu,
çocuklar sevinç çığlıkları ve kollarını açarak onu amcaları olarak selamladılar. Marquis de Varennes kısa süre sonra gemiye bindi, kız kardeşini ve çocuklarını kucakladı ve onları büyük saraylardan birine götürdü,
o sırada garnizonda olduğu için
odaları vardı. Arthur, hanımın bir işaretiyle onu takip etti, hanım onu ​​kardeşine 'Monsieur Arture' olarak tanıttı -kocamın sekreteri olarak hareket etme iyiliğini yapacak genç bir İskoç beyefendi.

Kanın asaletini ileten _gentilhomme_ kelimesini kullandı ve Marquis, Arthur'un nefret ettiği o zarif reveranslardan biriyle tanıştırdı, çünkü bu reveranslar ona kendi sınırlamalarının katılığını iki kat daha hissettiriyordu. Lanty ile vakit geçirmekten memnundu, Lanty kasvetli binalara hayretle bakıyordu. 'Ve Kutsal Baba burada mı yaşıyordu?' dedi. 'İnanç ve 'kaba bir zevke sahip olmalı; şimdi sarayından bir taş parçasında bile doğruluk olup olmadığını merak ediyorum. Eğer olsaydı yaşlı annem çok memnun olurdu.'

'Burada yanlış papaların yaşadığını düşünmüştüm,' diye önerdi Arthur.

Lanty bir an ona sapkın bir öneriyi kabul edip etmeme konusunda şüphe içindeymiş gibi baktı, ancak Rahip aracılığıyla aldığı eğitim aklına geldi ve haykırdı--

'Belki de haklısınızdır, efendim; ve hangisinin doğru hangisinin yanlış olduğunu anlayana kadar taşları olduğu gibi bıraksam iyi olur. Aynı şekilde, eğer o bunu bilmediyse onun için pek bir fark yaratmazdı; ve eğer bilseydi, ona eski ejderhanın kıllarından bir saç teli getirirdim.'

Lanty, bir iki günlük yolculuğun onu eski ejderhayla neredeyse temasa getirdiğini fark etti, çünkü Tarascon'da Aziz Martha'nın Provence'ın büyük ejderhasını haç işaretiyle yıktığı söylenen mağara vardı. Madame de Bourke ve çocukları oraya dindar bir hac ziyareti yaptılar; ancak Arthur efsanenin eklendiği kişinin gerçek Bethany'li Martha olduğunu öğrendiğinde öfkelendi ve gruba katılmadı. 'Lyon ve Vienne'deki şehitlerden çok farklıydı! Onların tarihi inandırıcıydı, ancak bu--'

'Bu kadar yüksek sesle konuşma dostum,' dedi M. de Varennes. 'Onların türbeleri kadınları ve çocukları teselli etmek için eşit derecede iyidir.'

Arthur tonu tam olarak anlayamadı ve bir erkek gibi muamele görmekten memnun olması mı yoksa Marki'nin kendi inancından
vazgeçmesine şaşırması mı gerektiğini bilemedi.

Kız kardeşine Montpelier'e kadar eşlik edebilen Marki, iki takipçisi olan İskoç ve İrlandalı'ya gülüyordu, ikisi de iyi genç adamlardı - neredeyse fazla iyilerdi, diye iddia etti.

'Almanya'ya girdiğinde onları dikkatle gözetlemen gerekecek, kız kardeşim,' dedi, 'yoksa Prusya Kralı onları kesinlikle kaçıracak, uzun boylu el bombası alayı için.'

'Ah kardeşim, daha fazla tehlikeden bahsetme: Sevgili kocama yeniden katılabilmem için önümde yeterince şey var.'

Kardeş ve kız kardeş arasında çok ciddi bir konsey toplandı. Mareşal Berwick komutasındaki Fransız ordusu, Pireneler'in güney tarafında yürümüştü ve muhtemelen bu sırada Rousillon kontluğundaydı, Rosas'ı kuşatmayı planlıyordu. Onlarla bir kez bir araya gelince her şey yoluna girecekti, ancak
arada dağ yolları ve Fransız yönetimini kabul etmeye en isteksiz olan İspanya'nın tam da o bölgesi vardı.

Marki, kız kardeşinin hizmetine bir refakatçi yerleştirme yetkisine sahipti, ancak sayılar onu sıradan dağ haydutlarına karşı koruyabilse de, Berwick ile karşılaşmak üzere yolda olabilecek düşman birliklerinden onu korumaya yeterli olmayacaktı. Dağ yollarındaki yolculuğun masrafı ve zorluğu da büyük olacaktı ve bu tehlikelerden deniz yoluyla kaçınmak mantıklı görünüyordu. Madame de Bourke bu plana hevesle katıldı, vahşi Pirene geçitleri ve daha vahşi sakinleri korkusu her zaman öyleydi ki, bunlardan kaçınmanın herhangi bir yolunu yakalamaktan mutluluk duyuyordu ve daha önce birden fazla yolculuk yapmıştı. Estelle, Telemakhos'un bir Fenike gemisinde bunu yapması nedeniyle deniz yoluyla gideceklerini öğrenince memnun oldu ve çocukların kurguyu ve gerçeği harmanladığı o tuhaf, düşsel şekilde, Calypso'nun adasına gelip gelmeyeceklerini merak etti; ve Odysseia'yı okumuş olan Arthur onu sevindirdi ve
Ulysse'yi Polyphemus mağarasıyla korkuttu. M. de Varennes kız kardeşiyle ancak
Montpelier'e kadar gidebildi. Sonra ondan ayrıldı ve
grup lagünlerin kıyıları boyunca, arabada, Lyon Körfezi'nin eski Yunan kasabalarından biri olan Cette limanına doğru ilerledi ve
gemilerle dolu güzel bir limana sahipti. Maitre Hebert, hanımı ve maiyeti bir hana giderken, bir gemiye binmek üzere gönderildi ve öğleden sonra İspanya'ya gitmek üzere olan bir Fransız gemisi bulamadığı, ancak Barselona'ya giden bir Ceneviz tartanı olduğu ve Madame la Comtesse'in kendisi ve maiyeti için bir geçiş sağlayabileceği ve onu yirmi dört saat içinde oraya götüreceği haberini getirene kadar bekledi. Şehir, Mareşal Berwick'in ordusuna katılmak için bir çağrı bekleyen askerlerle doluydu. Birkaç gösterişli subay, Madame l'Ambassadrice'e saygılarını sunmuştu ve İspanya'daki orduya adam ve erzak götürecek Fransız nakliye gemilerinden birinin gelmesini beklemeyi tercih etmediği sürece, tavsiyeye katıldılar. Ancak bunu reddetti ve sadece pasaportlarının yenilenmesi için gerekli olduğu sürece beyefendilerin hizmetlerini kabul etti, çünkü
bunlar her zaman Fransa'nın müttefiki olan bağımsız bir gücün gemisiyle taşınacaktı.

Tartan güzel bir nesneydi, tek güverteli, tek direkli bir gemiydi,
uzun bir pruva direği ve kanat gibi kocaman bir Latin yelkeni vardı ve
çocuklar ona ilk görüşte aşık oldular. Estelle, Mentor'un Telemakhos için ödünç aldığı türden bir gemi olduğundan oldukça emindi; ancak
zavallı hizmetçiler korkunç derecede korkmuşlardı ve Babette'in, bir bardak _eau sucree_ içindeki bir parça limon kabuğu gibi
dalgaların insafına kalmayı asla taahhüt etmediğini ilan ettiği duyulabilirdi.

'Geri dönebilirsin,' dedi Madame de Bourke. 'Kimseyi bizim tehlikelerimizi ve zorluklarımızı paylaşmaya zorlamıyorum.'

Fakat Babette dizlerinin üzerine çöktü ve hiçbir şeyin onu Madam'dan ayırmaması gerektiğini ilan etti! O iyi bir yaratıktı, fakat tüm
izleyicilere fedakarlığının boyutunu gösteren hıçkırık ve gözyaşlarının lüksünü kendine inkar edemezdi.

Madam de Bourke, yolcular için çok az uygun ve sadece bir küçük kamarası olan bir gemide hatırı sayılır bir rahatsızlık olacağını biliyordu,
Fransızca konuşan kaptan,
bu kamarayı onun kullanımına bıraktı. Ancak, bu sadece kısa bir süre için olacaktı ve Ekim ayının sonuna yaklaşmış olmasına rağmen,
mavi deniz, Akdeniz'in olabileceği kadar sakindi, bu yüzden
geceyi limanda geçirmek zorunda kalacak olanlara hiçbir zarar gelmeyeceğine güveniyordu.

Küçük Ceneviz gemisi limandan ayrıldığında güzel bir akşamdı ve Cette, geride kaldıkça daha güzel görünerek uzaklaştı. Çocuklar limandaki ışıkları ve geminin suda bıraktığı fosforlu izi izlemeyi bırakmaya ikna edilebilir edilmez yatağa yatırıldılar.

O gece ve ertesi gün keyifli ve huzurluydu; sert hava yoktu ve yolcular arasında çok az hastalık vardı. Madame de Bourke, Pireneler yolculuğunun dehşetinden kurtulduğu için kendini tebrik etti ve Cenevizli kaptan, hava hızla değişmezse ertesi sabah İspanyol kıyılarını görebilecekleri konusunda ona güvence verdi. Deniz neredeyse çok sakin olmasaydı, çoktan orada olurlardı. Akşam yine o kadar keyifliydi ki çocuklar tekrar deniz yoluyla geri dönmek zorunda kalacaklarını duyduklarında mutlu oldular ve
Kont'a yaptığı sunumdan biraz çekinen Arthur, yolculuğun sonunun çok yakın olmasından pişmanlık duydu, ancak Ulysse ona
'_Mon papa_ onu sevecektir, çünkü çok büyüleyici hikayeler anlatabilir' diye güvence verdi ve Lanty, 'M. le Comte çok dost canlısı bir beyefendiydi.'

Arthur güvertede pelerinine sarılı bir şekilde uyuyordu, denizciler arasında bir kargaşayla
uyandı. Ayağa kalktı ve
sabahın erken saatleri olduğunu, güneşin denizin üzerinde yükseldiğini ve denizcilerin
hevesle o yöne baktığını gördü.
Karayı görüp görmediklerini sormak için hevesle ilerledi, ancak ilk adımı attığında İspanya'nın batılarında olduğunu hatırladı, doğuda değil. Cenevizli denizcilerin '_Ii Moro--Il Moro_' diye haykırışını dehşet ve dehşet tonlarında ayırt etti ve hemen hemen aynı anda
ona doğru sendeleyerek gelen Maitre Hebert'ten bir şok aldı.

'Affedersiniz, affedersiniz, Mösyö; ben hazırlanmaya gidiyorum Madam! Lanetli
Mağribiler. Geçmeme izin verin--_misericorde_, bize ne olacak?'

Arthur, mürettebattan Fransızca konuşabilenleri bulmak için çabaladı,
ama hepsi ona dikkat edemeyecek kadar dehşet içindeydi ve o sadece gözlerinin yöneldiği şeyi izleyebiliyordu, sabah ışığında parlak, bir şahinin avına atlaması gibi tuhaf ve korkutucu bir hızla gelen beyaz bir yelken, çünkü sadece yelkenlerine güvenmiyordu, küreklerle hareket ettiriliyordu.

Bir sonraki an Madame de Bourke güvertedeydi, Abbe'nin kolundan tutuyordu ve Estelle, saçları omuzlarında, ona tutunuyordu. Çok
solgun görünüyordu, ancak sakinliği, umutsuzluk hareketleriyle kendilerini
atıp, Meryem Ana'ya ve azizlere yeminler
çığlık atıp, beddualar
bağıran İtalyan denizcilerle tezat oluşturuyordu. Kaptan onunla konuşmaya
geldi. 'Madam,' dedi, 'sizden kamaranızda kalmanızı rica ediyorum.
Birincisinden sonra, siz ve tüm sizinkiler güvende olacaksınız. Bir Fransız uyruğuna zarar veremezler; yazık! yazık! Bizimle olsaydı.'

'Peki sizin için nasıl olacak?' diye sordu.

Küçümseme hareketi yaptı.

'Benim için yıkım olacak; zavallı arkadaşlarım için kölelik; yani, eğer
salgından sağ çıkabilirsek. Hanımefendi, yalvarıyorum, kamaraya sığının,
kendiniz ve tüm mallarınız. Bu iblislerin ilk hücumunun ne olacağını kimse bilemez! _Diavoli_! _veri diavola_! Ah! Hangi günahım yüzünden
elli yolculuktan sonra her şeyimi kaybetmeye mahkûm ediliyorum?'

Mürettebattan gelen yeni bir çığlık dalgası kaptanı çağırdı. 'Uzun tekneyi
çıkartıyorlar,' diye haykırdı; 'Bize binecekler!'

'Hanımefendi! Yalvarıyorum, kamaraya kapanın.'

Ve _deshabille_'in çeşitli evrelerindeki dört hizmetçi, denizcilerin çığlıklarına kendi çığlıklarını ekleyerek onu içeri çekmeye çalıştılar, ama o etrafta Arthur'u aradı. 'Bizimle gelin, Mösyö,' dedi sessizce, çünkü tüm önceki depresyonlarından ve endişelerinden sonra, ruhu tehlikenin gerçek stresinde
dayanıklılığa yükseldi. 'Bizimle gelin, yalvarıyorum,' dedi.
'Pasaportlarımızda adınız geçiyor ve anlaşmalar öyle ki, ne Fransız ne de İngiliz tebaası bu alçaklar tarafından kötü muameleye uğrayamaz veya köleleştirilemez.
Kaptanın dediği gibi, tehlike sadece ilk saldırıdadır.'

'Sizi hayatım pahasına koruyacağım, Madam,' diye ilan etti Arthur, kılıcını çekerken, yanakları ve gözleri aydınlandı.

'Ah, onu kaldırın. Kendi canınızı kaybetmekten başka ne yapabilirsiniz ki?' diye bağırdı kadın. 'Unutmayın, bir anneniz var--'

Buradaki Cenevizli kaptan, Madam ve tüm kadınların hemen kabine kapanmaları konusunda ısrar etmek için döndü. Estelle, Arthur'un elini sertçe çekti, gelmesi için yalvardı, ama Arthur onu merdivenden aşağı
kaldırdı ve sonra kapıyı kapattı, Lanty ve ikisi de dışarıdaydı.

'Bir tuzaktaki fare gibi bir deliğe kapatılmak, önden darbeler varken, etin dayanabileceğinden daha fazla,' dedi Lanty, bir el çivisini yakalamış ve onu başının üzerinde sallıyordu, gerçek bir shillelagh tarzında, daha önce hiç bir hizip kavgası görmemiş birinin kalıtsal içgüdüsüyle, memleketi olması gereken yerde.

Cenevizli kaptan ona deli gibi baktı ve karışık bir Fransızca ve İtalyanca karışımıyla silahını bırakmasını bağırdı.

'_Quei cattivi--ces scelerats_ dişlerine kadar silahlanmıştı--ateş edecekti. Hepsi güvertede
düz yattı.'

Bu hareket kendi kendine konuşuyordu. Korku dolu bir ulumayla tüm İtalyanlar
yerle bir oldu; ancak ne İskoç ne de İrlandalı kan onların örneğini izlemeye cesaret edemedi veya belki de ihtiyacın aciliyetini tam olarak algılayamadı, ta ki bir mermi yağmuru kulaklarının etrafında ıslık çalana kadar, ancak mutlu bir şekilde
yaralanmadan, direk ve donanım onları korumuştu, yelken
deliklerle
dolmuştu ve duman, rapor kulaklarına
çınlarken görüşlerini bulandırıyordu. Bir saniye sonra sarıklı, palalı
figürler gemiye atladılar. Cenevizliler hala yerde yatıyorlardı ve hiçbir
direnç göstermediler, ancak Lanty ve Arthur merdivenin iki yanında durup
ilk yaklaşan ikisini geri fırlattılar; ancak dört veya beş kişi daha
üzerlerine atladı ve Cenevizlilerin '_Franchi_! _Franchi_!' diye bağırması olmasaydı, anında kesileceklerdi. Açıkça anlaşılan o sihirli
kelimede, korsanlar sadece iki genci sıkıca tuttular, şüphesiz kötü Arapçayla onlara hakaret ettiler, Lanty öfkeyle dişlerini gıcırdattı, ancak aldığı iki kılıç darbesinin acısını neredeyse hiç hissetmedi ve bir dizi ünlem
söyledi, ancak esas olarak kendisine yardım etmek için elini bile kaldırmamış beyaz ciğerli denizcilere yönelikti. Neyse ki, Arthur dışında kimse onun söylediği tek kelimeyi anlamadı, askeri deneyimi olan Arthur, onu esir alan, incecik görünüşlü, belinde fes ve çizgili kuşak olan Mağribi'nin
[...]
kayboldu! Bir gün, Mösyö, bizi Paris'te görmeye geleceksin ve
minnettarlığımızı nasıl göstereceğimizi öğreneceğiz!' dedi.

Hem Lanty hem de Maitre Hebert, M. Arture'a mektup yazma sözü verdiler; ve zamanı gelince sadece mektuplarını değil, çocukların hayatını ve özgürlüğünü kendisine borçlu olduğunu
bilen
Kont de Bourke'dan da hararetli teşekkür mektupları aldı.

Arthur, Lanty'den ayrıca zavallı Abbe'nin
eve döndükten kısa bir süre sonra
çöktüğünü ve öldüğünü duydu. Sadık üvey kardeşi
çok
üzülmüştü, ancak aile hizmetçilerin sadakatini Hebert'i Provencal arazilerinin yöneticisi olarak terfi ettirerek ödüllendirmişti, Lanty ise
Victorine ile evliydi ve bu da onlara gelişen bir _perruquier's_ dükkanı açmalarını ve küçük Jacques'ın bakımından
çıktığında annesi için bir yuva kurmalarını sağlayan bir _nokta_ ile evliydi. Estelle zamanı gelince bir Fransız asilzadeyle evlendi ve sonraki yıllarda
'General Sir Arthur Hope' oğlunu ve kızını Provence şatosunda uzun bir
ziyaret yapmaya ve bir rüya gibi görünen garip
maceralar hakkında konuşmaya götürdü. Onu asil bir hanımefendi buldu, kahramanca
çocukluğunun vaadini yerine getiriyordu ve hala yarı-dönmüş Selim'in gözlerini
açmak için herhangi bir görev göndermenin
imkansızlığına hayıflanıyordu.

.
*** END OF TURKISH PART ***
***END OF THE PROJECT GUTENBERG EBOOK A MODERN TELEMACHUS***


******* This file should be named 4271.txt or 4271.zip *******


This and all associated files of various formats will be found in:
http://www.gutenberg.org/dirs/4/2/7/4271



Updated editions will replace the previous one--the old editions
will be renamed.

Creating the works from public domain print editions means that no
one owns a United States copyright in these works, so the Foundation
(and you!) can copy and distribute it in the United States without
permission and without paying copyright royalties.  Special rules,
set forth in the General Terms of Use part of this license, apply to
copying and distributing Project Gutenberg-tm electronic works to
protect the PROJECT GUTENBERG-tm concept and trademark.  Project
Gutenberg is a registered trademark, and may not be used if you
charge for the eBooks, unless you receive specific permission.  If you
do not charge anything for copies of this eBook, complying with the
rules is very easy.  You may use this eBook for nearly any purpose
such as creation of derivative works, reports, performances and
research.  They may be modified and printed and given away--you may do
practically ANYTHING with public domain eBooks.  Redistribution is
subject to the trademark license, especially commercial
redistribution.



*** START: FULL LICENSE ***

THE FULL PROJECT GUTENBERG LICENSE
PLEASE READ THIS BEFORE YOU DISTRIBUTE OR USE THIS WORK

To protect the Project Gutenberg-tm mission of promoting the free
distribution of electronic works, by using or distributing this work
(or any other work associated in any way with the phrase "Project
Gutenberg"), you agree to comply with all the terms of the Full Project
Gutenberg-tm License (available with this file or online at
http://www.gutenberg.org/license).


Section 1.  General Terms of Use and Redistributing Project Gutenberg-tm
electronic works

1.A.  By reading or using any part of this Project Gutenberg-tm
electronic work, you indicate that you have read, understand, agree to
and accept all the terms of this license and intellectual property
(trademark/copyright) agreement.  If you do not agree to abide by all
the terms of this agreement, you must cease using and return or destroy
all copies of Project Gutenberg-tm electronic works in your possession.
If you paid a fee for obtaining a copy of or access to a Project
Gutenberg-tm electronic work and you do not agree to be bound by the
terms of this agreement, you may obtain a refund from the person or
entity to whom you paid the fee as set forth in paragraph 1.E.8.

1.B.  "Project Gutenberg" is a registered trademark.  It may only be
used on or associated in any way with an electronic work by people who
agree to be bound by the terms of this agreement.  There are a few
things that you can do with most Project Gutenberg-tm electronic works
even without complying with the full terms of this agreement.  See
paragraph 1.C below.  There are a lot of things you can do with Project
Gutenberg-tm electronic works if you follow the terms of this agreement
and help preserve free future access to Project Gutenberg-tm electronic
works.  See paragraph 1.E below.

1.C.  The Project Gutenberg Literary Archive Foundation ("the Foundation"
or PGLAF), owns a compilation copyright in the collection of Project
Gutenberg-tm electronic works.  Nearly all the individual works in the
collection are in the public domain in the United States.  If an
individual work is in the public domain in the United States and you are
located in the United States, we do not claim a right to prevent you from
copying, distributing, performing, displaying or creating derivative
works based on the work as long as all references to Project Gutenberg
are removed.  Of course, we hope that you will support the Project
Gutenberg-tm mission of promoting free access to electronic works by
freely sharing Project Gutenberg-tm works in compliance with the terms of
this agreement for keeping the Project Gutenberg-tm name associated with
the work.  You can easily comply with the terms of this agreement by
keeping this work in the same format with its attached full Project
Gutenberg-tm License when you share it without charge with others.

1.D.  The copyright laws of the place where you are located also govern
what you can do with this work.  Copyright laws in most countries are in
a constant state of change.  If you are outside the United States, check
the laws of your country in addition to the terms of this agreement
before downloading, copying, displaying, performing, distributing or
creating derivative works based on this work or any other Project
Gutenberg-tm work.  The Foundation makes no representations concerning
the copyright status of any work in any country outside the United
States.

1.E.  Unless you have removed all references to Project Gutenberg:

1.E.1.  The following sentence, with active links to, or other immediate
access to, the full Project Gutenberg-tm License must appear prominently
whenever any copy of a Project Gutenberg-tm work (any work on which the
phrase "Project Gutenberg" appears, or with which the phrase "Project
Gutenberg" is associated) is accessed, displayed, performed, viewed,
copied or distributed:

This eBook is for the use of anyone anywhere at no cost and with
almost no restrictions whatsoever.  You may copy it, give it away or
re-use it under the terms of the Project Gutenberg License included
with this eBook or online at www.gutenberg.org

1.E.2.  If an individual Project Gutenberg-tm electronic work is derived
from the public domain (does not contain a notice indicating that it is
posted with permission of the copyright holder), the work can be copied
and distributed to anyone in the United States without paying any fees
or charges.  If you are redistributing or providing access to a work
with the phrase "Project Gutenberg" associated with or appearing on the
work, you must comply either with the requirements of paragraphs 1.E.1
through 1.E.7 or obtain permission for the use of the work and the
Project Gutenberg-tm trademark as set forth in paragraphs 1.E.8 or
1.E.9.

1.E.3.  If an individual Project Gutenberg-tm electronic work is posted
with the permission of the copyright holder, your use and distribution
must comply with both paragraphs 1.E.1 through 1.E.7 and any additional
terms imposed by the copyright holder.  Additional terms will be linked
to the Project Gutenberg-tm License for all works posted with the
permission of the copyright holder found at the beginning of this work.

1.E.4.  Do not unlink or detach or remove the full Project Gutenberg-tm
License terms from this work, or any files containing a part of this
work or any other work associated with Project Gutenberg-tm.

1.E.5.  Do not copy, display, perform, distribute or redistribute this
electronic work, or any part of this electronic work, without
prominently displaying the sentence set forth in paragraph 1.E.1 with
active links or immediate access to the full terms of the Project
Gutenberg-tm License.

1.E.6.  You may convert to and distribute this work in any binary,
compressed, marked up, nonproprietary or proprietary form, including any
word processing or hypertext form.  However, if you provide access to or
distribute copies of a Project Gutenberg-tm work in a format other than
"Plain Vanilla ASCII" or other format used in the official version
posted on the official Project Gutenberg-tm web site (www.gutenberg.org),
you must, at no additional cost, fee or expense to the user, provide a
copy, a means of exporting a copy, or a means of obtaining a copy upon
request, of the work in its original "Plain Vanilla ASCII" or other
form.  Any alternate format must include the full Project Gutenberg-tm
License as specified in paragraph 1.E.1.

1.E.7.  Do not charge a fee for access to, viewing, displaying,
performing, copying or distributing any Project Gutenberg-tm works
unless you comply with paragraph 1.E.8 or 1.E.9.

1.E.8.  You may charge a reasonable fee for copies of or providing
access to or distributing Project Gutenberg-tm electronic works provided
that

- You pay a royalty fee of 20% of the gross profits you derive from
     the use of Project Gutenberg-tm works calculated using the method
     you already use to calculate your applicable taxes.  The fee is
     owed to the owner of the Project Gutenberg-tm trademark, but he
     has agreed to donate royalties under this paragraph to the
     Project Gutenberg Literary Archive Foundation.  Royalty payments
     must be paid within 60 days following each date on which you
     prepare (or are legally required to prepare) your periodic tax
     returns.  Royalty payments should be clearly marked as such and
     sent to the Project Gutenberg Literary Archive Foundation at the
     address specified in Section 4, "Information about donations to
     the Project Gutenberg Literary Archive Foundation."

- You provide a full refund of any money paid by a user who notifies
     you in writing (or by e-mail) within 30 days of receipt that s/he
     does not agree to the terms of the full Project Gutenberg-tm
     License.  You must require such a user to return or
     destroy all copies of the works possessed in a physical medium
     and discontinue all use of and all access to other copies of
     Project Gutenberg-tm works.

- You provide, in accordance with paragraph 1.F.3, a full refund of any
     money paid for a work or a replacement copy, if a defect in the
     electronic work is discovered and reported to you within 90 days
     of receipt of the work.

- You comply with all other terms of this agreement for free
     distribution of Project Gutenberg-tm works.

1.E.9.  If you wish to charge a fee or distribute a Project Gutenberg-tm
electronic work or group of works on different terms than are set
forth in this agreement, you must obtain permission in writing from
both the Project Gutenberg Literary Archive Foundation and Michael
Hart, the owner of the Project Gutenberg-tm trademark.  Contact the
Foundation as set forth in Section 3 below.

1.F.

1.F.1.  Project Gutenberg volunteers and employees expend considerable
effort to identify, do copyright research on, transcribe and proofread
public domain works in creating the Project Gutenberg-tm
collection.  Despite these efforts, Project Gutenberg-tm electronic
works, and the medium on which they may be stored, may contain
"Defects," such as, but not limited to, incomplete, inaccurate or
corrupt data, transcription errors, a copyright or other intellectual
property infringement, a defective or damaged disk or other medium, a
computer virus, or computer codes that damage or cannot be read by
your equipment.

1.F.2.  LIMITED WARRANTY, DISCLAIMER OF DAMAGES - Except for the "Right
of Replacement or Refund" described in paragraph 1.F.3, the Project
Gutenberg Literary Archive Foundation, the owner of the Project
Gutenberg-tm trademark, and any other party distributing a Project
Gutenberg-tm electronic work under this agreement, disclaim all
liability to you for damages, costs and expenses, including legal
fees.  YOU AGREE THAT YOU HAVE NO REMEDIES FOR NEGLIGENCE, STRICT
LIABILITY, BREACH OF WARRANTY OR BREACH OF CONTRACT EXCEPT THOSE
PROVIDED IN PARAGRAPH F3.  YOU AGREE THAT THE FOUNDATION, THE
TRADEMARK OWNER, AND ANY DISTRIBUTOR UNDER THIS AGREEMENT WILL NOT BE
LIABLE TO YOU FOR ACTUAL, DIRECT, INDIRECT, CONSEQUENTIAL, PUNITIVE OR
INCIDENTAL DAMAGES EVEN IF YOU GIVE NOTICE OF THE POSSIBILITY OF SUCH
DAMAGE.

1.F.3.  LIMITED RIGHT OF REPLACEMENT OR REFUND - If you discover a
defect in this electronic work within 90 days of receiving it, you can
receive a refund of the money (if any) you paid for it by sending a
written explanation to the person you received the work from.  If you
received the work on a physical medium, you must return the medium with
your written explanation.  The person or entity that provided you with
the defective work may elect to provide a replacement copy in lieu of a
refund.  If you received the work electronically, the person or entity
providing it to you may choose to give you a second opportunity to
receive the work electronically in lieu of a refund.  If the second copy
is also defective, you may demand a refund in writing without further
opportunities to fix the problem.

1.F.4.  Except for the limited right of replacement or refund set forth
in paragraph 1.F.3, this work is provided to you 'AS-IS', WITH NO OTHER
WARRANTIES OF ANY KIND, EXPRESS OR IMPLIED, INCLUDING BUT NOT LIMITED TO
WARRANTIES OF MERCHANTIBILITY OR FITNESS FOR ANY PURPOSE.

1.F.5.  Some states do not allow disclaimers of certain implied
warranties or the exclusion or limitation of certain types of damages.
If any disclaimer or limitation set forth in this agreement violates the
law of the state applicable to this agreement, the agreement shall be
interpreted to make the maximum disclaimer or limitation permitted by
the applicable state law.  The invalidity or unenforceability of any
provision of this agreement shall not void the remaining provisions.

1.F.6.  INDEMNITY - You agree to indemnify and hold the Foundation, the
trademark owner, any agent or employee of the Foundation, anyone
providing copies of Project Gutenberg-tm electronic works in accordance
with this agreement, and any volunteers associated with the production,
promotion and distribution of Project Gutenberg-tm electronic works,
harmless from all liability, costs and expenses, including legal fees,
that arise directly or indirectly from any of the following which you do
or cause to occur: (a) distribution of this or any Project Gutenberg-tm
work, (b) alteration, modification, or additions or deletions to any
Project Gutenberg-tm work, and (c) any Defect you cause.


Section  2.  Information about the Mission of Project Gutenberg-tm

Project Gutenberg-tm is synonymous with the free distribution of
electronic works in formats readable by the widest variety of computers
including obsolete, old, middle-aged and new computers.  It exists
because of the efforts of hundreds of volunteers and donations from
people in all walks of life.

Volunteers and financial support to provide volunteers with the
assistance they need, is critical to reaching Project Gutenberg-tm's
goals and ensuring that the Project Gutenberg-tm collection will
remain freely available for generations to come.  In 2001, the Project
Gutenberg Literary Archive Foundation was created to provide a secure
and permanent future for Project Gutenberg-tm and future generations.
To learn more about the Project Gutenberg Literary Archive Foundation
and how your efforts and donations can help, see Sections 3 and 4
and the Foundation web page at http://www.gutenberg.org/fundraising/pglaf.


Section 3.  Information about the Project Gutenberg Literary Archive
Foundation

The Project Gutenberg Literary Archive Foundation is a non profit
501(c)(3) educational corporation organized under the laws of the
state of Mississippi and granted tax exempt status by the Internal
Revenue Service.  The Foundation's EIN or federal tax identification
number is 64-6221541.  Contributions to the Project Gutenberg
Literary Archive Foundation are tax deductible to the full extent
permitted by U.S. federal laws and your state's laws.

The Foundation's principal office is located at 4557 Melan Dr. S.
Fairbanks, AK, 99712., but its volunteers and employees are scattered
throughout numerous locations.  Its business office is located at
809 North 1500 West, Salt Lake City, UT 84116, (801) 596-1887, email
business@pglaf.org.  Email contact links and up to date contact
information can be found at the Foundation's web site and official
page at http://www.gutenberg.org/about/contact

For additional contact information:
     Dr. Gregory B. Newby
     Chief Executive and Director
     gbnewby@pglaf.org

Section 4.  Information about Donations to the Project Gutenberg
Literary Archive Foundation

Project Gutenberg-tm depends upon and cannot survive without wide
spread public support and donations to carry out its mission of
increasing the number of public domain and licensed works that can be
freely distributed in machine readable form accessible by the widest
array of equipment including outdated equipment.  Many small donations
($1 to $5,000) are particularly important to maintaining tax exempt
status with the IRS.

The Foundation is committed to complying with the laws regulating
charities and charitable donations in all 50 states of the United
States.  Compliance requirements are not uniform and it takes a
considerable effort, much paperwork and many fees to meet and keep up
with these requirements.  We do not solicit donations in locations
where we have not received written confirmation of compliance.  To
SEND DONATIONS or determine the status of compliance for any
particular state visit http://www.gutenberg.org/fundraising/donate

While we cannot and do not solicit contributions from states where we
have not met the solicitation requirements, we know of no prohibition
against accepting unsolicited donations from donors in such states who
approach us with offers to donate.

International donations are gratefully accepted, but we cannot make
any statements concerning tax treatment of donations received from
outside the United States.  U.S. laws alone swamp our small staff.

Please check the Project Gutenberg Web pages for current donation
methods and addresses.  Donations are accepted in a number of other
ways including checks, online payments and credit card donations.
To donate, please visit:
http://www.gutenberg.org/fundraising/donate


Section 5.  General Information About Project Gutenberg-tm electronic
works.

Professor Michael S. Hart is the originator of the Project Gutenberg-tm
concept of a library of electronic works that could be freely shared
with anyone.  For thirty years, he produced and distributed Project
Gutenberg-tm eBooks with only a loose network of volunteer support.

Project Gutenberg-tm eBooks are often created from several printed
editions, all of which are confirmed as Public Domain in the U.S.
unless a copyright notice is included.  Thus, we do not necessarily
keep eBooks in compliance with any particular paper edition.

Most people start at our Web site which has the main PG search facility:

     http://www.gutenberg.org

This Web site includes information about Project Gutenberg-tm,
including how to make donations to the Project Gutenberg Literary
Archive Foundation, how to help produce our new eBooks, and how to
subscribe to our email newsletter to hear about new eBooks.

